
---------- Begin Simulation Statistics ----------
final_tick                               150374319500                       # Number of ticks from beginning of simulation (restored from checkpoints and never reset)
host_inst_rate                                 758697                       # Simulator instruction rate (inst/s)
host_mem_usage                                 684380                       # Number of bytes of host memory used
host_op_rate                                  1242212                       # Simulator op (including micro ops) rate (op/s)
host_seconds                                   103.97                       # Real time elapsed on the host
host_tick_rate                             1446384255                       # Simulator tick rate (ticks/s)
sim_freq                                 1000000000000                       # Frequency of simulated ticks
sim_insts                                    78878233                       # Number of instructions simulated
sim_ops                                     129147366                       # Number of ops (including micro ops) simulated
sim_seconds                                  0.150374                       # Number of seconds simulated
sim_ticks                                150374319500                       # Number of ticks simulated
system.clk_domain.clock                          1000                       # Clock period in ticks
system.cpu.Branches                          10868238                       # Number of branches fetched
system.cpu.apic_clk_domain.clock                 8000                       # Clock period in ticks
system.cpu.committedInsts                    78878233                       # Number of instructions committed
system.cpu.committedOps                     129147366                       # Number of ops (including micro ops) committed
system.cpu.dcache.HardPFReq_avg_mshr_miss_latency::.cpu.dcache.prefetcher 15921.086750                       # average HardPFReq mshr miss latency
system.cpu.dcache.HardPFReq_avg_mshr_miss_latency::total 15921.086750                       # average HardPFReq mshr miss latency
system.cpu.dcache.HardPFReq_mshr_miss_latency::.cpu.dcache.prefetcher   1829237341                       # number of HardPFReq MSHR miss cycles
system.cpu.dcache.HardPFReq_mshr_miss_latency::total   1829237341                       # number of HardPFReq MSHR miss cycles
system.cpu.dcache.HardPFReq_mshr_miss_rate::.cpu.dcache.prefetcher          inf                       # mshr miss rate for HardPFReq accesses
system.cpu.dcache.HardPFReq_mshr_miss_rate::total          inf                       # mshr miss rate for HardPFReq accesses
system.cpu.dcache.HardPFReq_mshr_misses::.cpu.dcache.prefetcher       114894                       # number of HardPFReq MSHR misses
system.cpu.dcache.HardPFReq_mshr_misses::total       114894                       # number of HardPFReq MSHR misses
system.cpu.dcache.ReadReq_accesses::.cpu.data     22410827                       # number of ReadReq accesses(hits+misses)
system.cpu.dcache.ReadReq_accesses::total     22410827                       # number of ReadReq accesses(hits+misses)
system.cpu.dcache.ReadReq_avg_miss_latency::.cpu.data 13369.281838                       # average ReadReq miss latency
system.cpu.dcache.ReadReq_avg_miss_latency::total 13369.281838                       # average ReadReq miss latency
system.cpu.dcache.ReadReq_avg_mshr_miss_latency::.cpu.data 12369.207661                       # average ReadReq mshr miss latency
system.cpu.dcache.ReadReq_avg_mshr_miss_latency::total 12369.207661                       # average ReadReq mshr miss latency
system.cpu.dcache.ReadReq_hits::.cpu.data     21800644                       # number of ReadReq hits
system.cpu.dcache.ReadReq_hits::total        21800644                       # number of ReadReq hits
system.cpu.dcache.ReadReq_miss_latency::.cpu.data   8157708500                       # number of ReadReq miss cycles
system.cpu.dcache.ReadReq_miss_latency::total   8157708500                       # number of ReadReq miss cycles
system.cpu.dcache.ReadReq_miss_rate::.cpu.data     0.027227                       # miss rate for ReadReq accesses
system.cpu.dcache.ReadReq_miss_rate::total     0.027227                       # miss rate for ReadReq accesses
system.cpu.dcache.ReadReq_misses::.cpu.data       610183                       # number of ReadReq misses
system.cpu.dcache.ReadReq_misses::total        610183                       # number of ReadReq misses
system.cpu.dcache.ReadReq_mshr_hits::.cpu.data            2                       # number of ReadReq MSHR hits
system.cpu.dcache.ReadReq_mshr_hits::total            2                       # number of ReadReq MSHR hits
system.cpu.dcache.ReadReq_mshr_miss_latency::.cpu.data   7547455500                       # number of ReadReq MSHR miss cycles
system.cpu.dcache.ReadReq_mshr_miss_latency::total   7547455500                       # number of ReadReq MSHR miss cycles
system.cpu.dcache.ReadReq_mshr_miss_rate::.cpu.data     0.027227                       # mshr miss rate for ReadReq accesses
system.cpu.dcache.ReadReq_mshr_miss_rate::total     0.027227                       # mshr miss rate for ReadReq accesses
system.cpu.dcache.ReadReq_mshr_misses::.cpu.data       610181                       # number of ReadReq MSHR misses
system.cpu.dcache.ReadReq_mshr_misses::total       610181                       # number of ReadReq MSHR misses
system.cpu.dcache.WriteReq_accesses::.cpu.data     10316598                       # number of WriteReq accesses(hits+misses)
system.cpu.dcache.WriteReq_accesses::total     10316598                       # number of WriteReq accesses(hits+misses)
system.cpu.dcache.WriteReq_avg_miss_latency::.cpu.data 21090.761725                       # average WriteReq miss latency
system.cpu.dcache.WriteReq_avg_miss_latency::total 21090.761725                       # average WriteReq miss latency
system.cpu.dcache.WriteReq_avg_mshr_miss_latency::.cpu.data 20089.569480                       # average WriteReq mshr miss latency
system.cpu.dcache.WriteReq_avg_mshr_miss_latency::total 20089.569480                       # average WriteReq mshr miss latency
system.cpu.dcache.WriteReq_hits::.cpu.data     10056885                       # number of WriteReq hits
system.cpu.dcache.WriteReq_hits::total       10056885                       # number of WriteReq hits
system.cpu.dcache.WriteReq_miss_latency::.cpu.data   5477545000                       # number of WriteReq miss cycles
system.cpu.dcache.WriteReq_miss_latency::total   5477545000                       # number of WriteReq miss cycles
system.cpu.dcache.WriteReq_miss_rate::.cpu.data     0.025174                       # miss rate for WriteReq accesses
system.cpu.dcache.WriteReq_miss_rate::total     0.025174                       # miss rate for WriteReq accesses
system.cpu.dcache.WriteReq_misses::.cpu.data       259713                       # number of WriteReq misses
system.cpu.dcache.WriteReq_misses::total       259713                       # number of WriteReq misses
system.cpu.dcache.WriteReq_mshr_hits::.cpu.data            4                       # number of WriteReq MSHR hits
system.cpu.dcache.WriteReq_mshr_hits::total            4                       # number of WriteReq MSHR hits
system.cpu.dcache.WriteReq_mshr_miss_latency::.cpu.data   5217442000                       # number of WriteReq MSHR miss cycles
system.cpu.dcache.WriteReq_mshr_miss_latency::total   5217442000                       # number of WriteReq MSHR miss cycles
system.cpu.dcache.WriteReq_mshr_miss_rate::.cpu.data     0.025174                       # mshr miss rate for WriteReq accesses
system.cpu.dcache.WriteReq_mshr_miss_rate::total     0.025174                       # mshr miss rate for WriteReq accesses
system.cpu.dcache.WriteReq_mshr_misses::.cpu.data       259709                       # number of WriteReq MSHR misses
system.cpu.dcache.WriteReq_mshr_misses::total       259709                       # number of WriteReq MSHR misses
system.cpu.dcache.avg_blocked_cycles::no_mshrs          nan                       # average number of cycles each access was blocked
system.cpu.dcache.avg_blocked_cycles::no_targets          nan                       # average number of cycles each access was blocked
system.cpu.dcache.blocked::no_mshrs                 0                       # number of cycles access was blocked
system.cpu.dcache.blocked::no_targets               0                       # number of cycles access was blocked
system.cpu.dcache.blocked_cycles::no_mshrs            0                       # number of cycles access was blocked
system.cpu.dcache.blocked_cycles::no_targets            0                       # number of cycles access was blocked
system.cpu.dcache.demand_accesses::.cpu.data     32727425                       # number of demand (read+write) accesses
system.cpu.dcache.demand_accesses::total     32727425                       # number of demand (read+write) accesses
system.cpu.dcache.demand_avg_miss_latency::.cpu.data 15674.578915                       # average overall miss latency
system.cpu.dcache.demand_avg_miss_latency::total 15674.578915                       # average overall miss latency
system.cpu.dcache.demand_avg_mshr_miss_latency::.cpu.data 14674.151329                       # average overall mshr miss latency
system.cpu.dcache.demand_avg_mshr_miss_latency::total 14674.151329                       # average overall mshr miss latency
system.cpu.dcache.demand_hits::.cpu.data     31857529                       # number of demand (read+write) hits
system.cpu.dcache.demand_hits::total         31857529                       # number of demand (read+write) hits
system.cpu.dcache.demand_miss_latency::.cpu.data  13635253500                       # number of demand (read+write) miss cycles
system.cpu.dcache.demand_miss_latency::total  13635253500                       # number of demand (read+write) miss cycles
system.cpu.dcache.demand_miss_rate::.cpu.data     0.026580                       # miss rate for demand accesses
system.cpu.dcache.demand_miss_rate::total     0.026580                       # miss rate for demand accesses
system.cpu.dcache.demand_misses::.cpu.data       869896                       # number of demand (read+write) misses
system.cpu.dcache.demand_misses::total         869896                       # number of demand (read+write) misses
system.cpu.dcache.demand_mshr_hits::.cpu.data            6                       # number of demand (read+write) MSHR hits
system.cpu.dcache.demand_mshr_hits::total            6                       # number of demand (read+write) MSHR hits
system.cpu.dcache.demand_mshr_miss_latency::.cpu.data  12764897500                       # number of demand (read+write) MSHR miss cycles
system.cpu.dcache.demand_mshr_miss_latency::total  12764897500                       # number of demand (read+write) MSHR miss cycles
system.cpu.dcache.demand_mshr_miss_rate::.cpu.data     0.026580                       # mshr miss rate for demand accesses
system.cpu.dcache.demand_mshr_miss_rate::total     0.026580                       # mshr miss rate for demand accesses
system.cpu.dcache.demand_mshr_misses::.cpu.data       869890                       # number of demand (read+write) MSHR misses
system.cpu.dcache.demand_mshr_misses::total       869890                       # number of demand (read+write) MSHR misses
system.cpu.dcache.overall_accesses::.cpu.data     32727425                       # number of overall (read+write) accesses
system.cpu.dcache.overall_accesses::total     32727425                       # number of overall (read+write) accesses
system.cpu.dcache.overall_avg_miss_latency::.cpu.data 15674.578915                       # average overall miss latency
system.cpu.dcache.overall_avg_miss_latency::total 15674.578915                       # average overall miss latency
system.cpu.dcache.overall_avg_mshr_miss_latency::.cpu.data 14674.151329                       # average overall mshr miss latency
system.cpu.dcache.overall_avg_mshr_miss_latency::.cpu.dcache.prefetcher 15921.086750                       # average overall mshr miss latency
system.cpu.dcache.overall_avg_mshr_miss_latency::total 14819.630336                       # average overall mshr miss latency
system.cpu.dcache.overall_hits::.cpu.data     31857529                       # number of overall hits
system.cpu.dcache.overall_hits::total        31857529                       # number of overall hits
system.cpu.dcache.overall_miss_latency::.cpu.data  13635253500                       # number of overall miss cycles
system.cpu.dcache.overall_miss_latency::total  13635253500                       # number of overall miss cycles
system.cpu.dcache.overall_miss_rate::.cpu.data     0.026580                       # miss rate for overall accesses
system.cpu.dcache.overall_miss_rate::total     0.026580                       # miss rate for overall accesses
system.cpu.dcache.overall_misses::.cpu.data       869896                       # number of overall misses
system.cpu.dcache.overall_misses::total        869896                       # number of overall misses
system.cpu.dcache.overall_mshr_hits::.cpu.data            6                       # number of overall MSHR hits
system.cpu.dcache.overall_mshr_hits::total            6                       # number of overall MSHR hits
system.cpu.dcache.overall_mshr_miss_latency::.cpu.data  12764897500                       # number of overall MSHR miss cycles
system.cpu.dcache.overall_mshr_miss_latency::.cpu.dcache.prefetcher   1829237341                       # number of overall MSHR miss cycles
system.cpu.dcache.overall_mshr_miss_latency::total  14594134841                       # number of overall MSHR miss cycles
system.cpu.dcache.overall_mshr_miss_rate::.cpu.data     0.026580                       # mshr miss rate for overall accesses
system.cpu.dcache.overall_mshr_miss_rate::.cpu.dcache.prefetcher          inf                       # mshr miss rate for overall accesses
system.cpu.dcache.overall_mshr_miss_rate::total     0.030090                       # mshr miss rate for overall accesses
system.cpu.dcache.overall_mshr_misses::.cpu.data       869890                       # number of overall MSHR misses
system.cpu.dcache.overall_mshr_misses::.cpu.dcache.prefetcher       114894                       # number of overall MSHR misses
system.cpu.dcache.overall_mshr_misses::total       984784                       # number of overall MSHR misses
system.cpu.dcache.prefetcher.num_hwpf_issued       149773                       # number of hwpf issued
system.cpu.dcache.prefetcher.pfBufferHit            8                       # number of redundant prefetches already in prefetch queue
system.cpu.dcache.prefetcher.pfIdentified       149818                       # number of prefetch candidates identified
system.cpu.dcache.prefetcher.pfInCache              0                       # number of redundant prefetches already in cache/mshr dropped
system.cpu.dcache.prefetcher.pfRemovedFull            0                       # number of prefetches dropped due to prefetch queue size
system.cpu.dcache.prefetcher.pfSpanPage        191218                       # number of prefetches not generated due to page crossing
system.cpu.dcache.prefetcher.pwrStateResidencyTicks::UNDEFINED 150374319500                       # Cumulative time (in ticks) in various power states
system.cpu.dcache.pwrStateResidencyTicks::UNDEFINED 150374319500                       # Cumulative time (in ticks) in various power states
system.cpu.dcache.replacements                 983760                       # number of replacements
system.cpu.dcache.tags.age_task_id_blocks_1022::1           17                       # Occupied blocks per task id
system.cpu.dcache.tags.age_task_id_blocks_1022::2          127                       # Occupied blocks per task id
system.cpu.dcache.tags.age_task_id_blocks_1022::3          242                       # Occupied blocks per task id
system.cpu.dcache.tags.age_task_id_blocks_1024::0           51                       # Occupied blocks per task id
system.cpu.dcache.tags.age_task_id_blocks_1024::1          157                       # Occupied blocks per task id
system.cpu.dcache.tags.age_task_id_blocks_1024::2          118                       # Occupied blocks per task id
system.cpu.dcache.tags.age_task_id_blocks_1024::3          312                       # Occupied blocks per task id
system.cpu.dcache.tags.avg_refs             33.349763                       # Average number of references to valid blocks.
system.cpu.dcache.tags.data_accesses         66439634                       # Number of data accesses
system.cpu.dcache.tags.occ_blocks::.cpu.data   886.184160                       # Average occupied blocks per requestor
system.cpu.dcache.tags.occ_blocks::.cpu.dcache.prefetcher   137.079001                       # Average occupied blocks per requestor
system.cpu.dcache.tags.occ_percent::.cpu.data     0.865414                       # Average percentage of cache occupancy
system.cpu.dcache.tags.occ_percent::.cpu.dcache.prefetcher     0.133866                       # Average percentage of cache occupancy
system.cpu.dcache.tags.occ_percent::total     0.999280                       # Average percentage of cache occupancy
system.cpu.dcache.tags.occ_task_id_blocks::1022          386                       # Occupied blocks per task id
system.cpu.dcache.tags.occ_task_id_blocks::1024          638                       # Occupied blocks per task id
system.cpu.dcache.tags.occ_task_id_percent::1022     0.376953                       # Percentage of cache occupancy per task id
system.cpu.dcache.tags.occ_task_id_percent::1024     0.623047                       # Percentage of cache occupancy per task id
system.cpu.dcache.tags.pwrStateResidencyTicks::UNDEFINED 150374319500                       # Cumulative time (in ticks) in various power states
system.cpu.dcache.tags.sampled_refs            984784                       # Sample count of references to valid blocks.
system.cpu.dcache.tags.tag_accesses          66439634                       # Number of tag accesses
system.cpu.dcache.tags.tagsinuse          1023.263161                       # Cycle average of tags in use
system.cpu.dcache.tags.total_refs            32842313                       # Total number of references to valid blocks.
system.cpu.dcache.tags.warmup_cycle            174500                       # Cycle when the warmup percentage was hit.
system.cpu.dcache.unused_prefetches               986                       # number of HardPF blocks evicted w/o reference
system.cpu.dcache.writebacks::.writebacks       981121                       # number of writebacks
system.cpu.dcache.writebacks::total            981121                       # number of writebacks
system.cpu.dtb.pwrStateResidencyTicks::UNDEFINED 150374319500                       # Cumulative time (in ticks) in various power states
system.cpu.dtb.rdAccesses                    22410827                       # TLB accesses on read requests
system.cpu.dtb.rdMisses                        103411                       # TLB misses on read requests
system.cpu.dtb.walker.pwrStateResidencyTicks::UNDEFINED 150374319500                       # Cumulative time (in ticks) in various power states
system.cpu.dtb.wrAccesses                    10316598                       # TLB accesses on write requests
system.cpu.dtb.wrMisses                        209620                       # TLB misses on write requests
system.cpu.dtb_walker_cache.avg_blocked_cycles::no_mshrs          nan                       # average number of cycles each access was blocked
system.cpu.dtb_walker_cache.avg_blocked_cycles::no_targets          nan                       # average number of cycles each access was blocked
system.cpu.dtb_walker_cache.blocked::no_mshrs            0                       # number of cycles access was blocked
system.cpu.dtb_walker_cache.blocked::no_targets            0                       # number of cycles access was blocked
system.cpu.dtb_walker_cache.blocked_cycles::no_mshrs            0                       # number of cycles access was blocked
system.cpu.dtb_walker_cache.blocked_cycles::no_targets            0                       # number of cycles access was blocked
system.cpu.dtb_walker_cache.pwrStateResidencyTicks::UNDEFINED 150374319500                       # Cumulative time (in ticks) in various power states
system.cpu.dtb_walker_cache.replacements            0                       # number of replacements
system.cpu.dtb_walker_cache.tags.avg_refs          nan                       # Average number of references to valid blocks.
system.cpu.dtb_walker_cache.tags.data_accesses            0                       # Number of data accesses
system.cpu.dtb_walker_cache.tags.pwrStateResidencyTicks::UNDEFINED 150374319500                       # Cumulative time (in ticks) in various power states
system.cpu.dtb_walker_cache.tags.sampled_refs            0                       # Sample count of references to valid blocks.
system.cpu.dtb_walker_cache.tags.tag_accesses            0                       # Number of tag accesses
system.cpu.dtb_walker_cache.tags.tagsinuse            0                       # Cycle average of tags in use
system.cpu.dtb_walker_cache.tags.total_refs            0                       # Total number of references to valid blocks.
system.cpu.dtb_walker_cache.tags.warmup_cycle            0                       # Cycle when the warmup percentage was hit.
system.cpu.icache.ReadReq_accesses::.cpu.inst    104726132                       # number of ReadReq accesses(hits+misses)
system.cpu.icache.ReadReq_accesses::total    104726132                       # number of ReadReq accesses(hits+misses)
system.cpu.icache.ReadReq_avg_miss_latency::.cpu.inst 88117.432735                       # average ReadReq miss latency
system.cpu.icache.ReadReq_avg_miss_latency::total 88117.432735                       # average ReadReq miss latency
system.cpu.icache.ReadReq_avg_mshr_miss_latency::.cpu.inst 87117.432735                       # average ReadReq mshr miss latency
system.cpu.icache.ReadReq_avg_mshr_miss_latency::total 87117.432735                       # average ReadReq mshr miss latency
system.cpu.icache.ReadReq_hits::.cpu.inst    104724348                       # number of ReadReq hits
system.cpu.icache.ReadReq_hits::total       104724348                       # number of ReadReq hits
system.cpu.icache.ReadReq_miss_latency::.cpu.inst    157201500                       # number of ReadReq miss cycles
system.cpu.icache.ReadReq_miss_latency::total    157201500                       # number of ReadReq miss cycles
system.cpu.icache.ReadReq_miss_rate::.cpu.inst     0.000017                       # miss rate for ReadReq accesses
system.cpu.icache.ReadReq_miss_rate::total     0.000017                       # miss rate for ReadReq accesses
system.cpu.icache.ReadReq_misses::.cpu.inst         1784                       # number of ReadReq misses
system.cpu.icache.ReadReq_misses::total          1784                       # number of ReadReq misses
system.cpu.icache.ReadReq_mshr_miss_latency::.cpu.inst    155417500                       # number of ReadReq MSHR miss cycles
system.cpu.icache.ReadReq_mshr_miss_latency::total    155417500                       # number of ReadReq MSHR miss cycles
system.cpu.icache.ReadReq_mshr_miss_rate::.cpu.inst     0.000017                       # mshr miss rate for ReadReq accesses
system.cpu.icache.ReadReq_mshr_miss_rate::total     0.000017                       # mshr miss rate for ReadReq accesses
system.cpu.icache.ReadReq_mshr_misses::.cpu.inst         1784                       # number of ReadReq MSHR misses
system.cpu.icache.ReadReq_mshr_misses::total         1784                       # number of ReadReq MSHR misses
system.cpu.icache.avg_blocked_cycles::no_mshrs          nan                       # average number of cycles each access was blocked
system.cpu.icache.avg_blocked_cycles::no_targets          nan                       # average number of cycles each access was blocked
system.cpu.icache.blocked::no_mshrs                 0                       # number of cycles access was blocked
system.cpu.icache.blocked::no_targets               0                       # number of cycles access was blocked
system.cpu.icache.blocked_cycles::no_mshrs            0                       # number of cycles access was blocked
system.cpu.icache.blocked_cycles::no_targets            0                       # number of cycles access was blocked
system.cpu.icache.demand_accesses::.cpu.inst    104726132                       # number of demand (read+write) accesses
system.cpu.icache.demand_accesses::total    104726132                       # number of demand (read+write) accesses
system.cpu.icache.demand_avg_miss_latency::.cpu.inst 88117.432735                       # average overall miss latency
system.cpu.icache.demand_avg_miss_latency::total 88117.432735                       # average overall miss latency
system.cpu.icache.demand_avg_mshr_miss_latency::.cpu.inst 87117.432735                       # average overall mshr miss latency
system.cpu.icache.demand_avg_mshr_miss_latency::total 87117.432735                       # average overall mshr miss latency
system.cpu.icache.demand_hits::.cpu.inst    104724348                       # number of demand (read+write) hits
system.cpu.icache.demand_hits::total        104724348                       # number of demand (read+write) hits
system.cpu.icache.demand_miss_latency::.cpu.inst    157201500                       # number of demand (read+write) miss cycles
system.cpu.icache.demand_miss_latency::total    157201500                       # number of demand (read+write) miss cycles
system.cpu.icache.demand_miss_rate::.cpu.inst     0.000017                       # miss rate for demand accesses
system.cpu.icache.demand_miss_rate::total     0.000017                       # miss rate for demand accesses
system.cpu.icache.demand_misses::.cpu.inst         1784                       # number of demand (read+write) misses
system.cpu.icache.demand_misses::total           1784                       # number of demand (read+write) misses
system.cpu.icache.demand_mshr_miss_latency::.cpu.inst    155417500                       # number of demand (read+write) MSHR miss cycles
system.cpu.icache.demand_mshr_miss_latency::total    155417500                       # number of demand (read+write) MSHR miss cycles
system.cpu.icache.demand_mshr_miss_rate::.cpu.inst     0.000017                       # mshr miss rate for demand accesses
system.cpu.icache.demand_mshr_miss_rate::total     0.000017                       # mshr miss rate for demand accesses
system.cpu.icache.demand_mshr_misses::.cpu.inst         1784                       # number of demand (read+write) MSHR misses
system.cpu.icache.demand_mshr_misses::total         1784                       # number of demand (read+write) MSHR misses
system.cpu.icache.overall_accesses::.cpu.inst    104726132                       # number of overall (read+write) accesses
system.cpu.icache.overall_accesses::total    104726132                       # number of overall (read+write) accesses
system.cpu.icache.overall_avg_miss_latency::.cpu.inst 88117.432735                       # average overall miss latency
system.cpu.icache.overall_avg_miss_latency::total 88117.432735                       # average overall miss latency
system.cpu.icache.overall_avg_mshr_miss_latency::.cpu.inst 87117.432735                       # average overall mshr miss latency
system.cpu.icache.overall_avg_mshr_miss_latency::total 87117.432735                       # average overall mshr miss latency
system.cpu.icache.overall_hits::.cpu.inst    104724348                       # number of overall hits
system.cpu.icache.overall_hits::total       104724348                       # number of overall hits
system.cpu.icache.overall_miss_latency::.cpu.inst    157201500                       # number of overall miss cycles
system.cpu.icache.overall_miss_latency::total    157201500                       # number of overall miss cycles
system.cpu.icache.overall_miss_rate::.cpu.inst     0.000017                       # miss rate for overall accesses
system.cpu.icache.overall_miss_rate::total     0.000017                       # miss rate for overall accesses
system.cpu.icache.overall_misses::.cpu.inst         1784                       # number of overall misses
system.cpu.icache.overall_misses::total          1784                       # number of overall misses
system.cpu.icache.overall_mshr_miss_latency::.cpu.inst    155417500                       # number of overall MSHR miss cycles
system.cpu.icache.overall_mshr_miss_latency::total    155417500                       # number of overall MSHR miss cycles
system.cpu.icache.overall_mshr_miss_rate::.cpu.inst     0.000017                       # mshr miss rate for overall accesses
system.cpu.icache.overall_mshr_miss_rate::total     0.000017                       # mshr miss rate for overall accesses
system.cpu.icache.overall_mshr_misses::.cpu.inst         1784                       # number of overall MSHR misses
system.cpu.icache.overall_mshr_misses::total         1784                       # number of overall MSHR misses
system.cpu.icache.pwrStateResidencyTicks::UNDEFINED 150374319500                       # Cumulative time (in ticks) in various power states
system.cpu.icache.replacements                   1272                       # number of replacements
system.cpu.icache.tags.age_task_id_blocks_1024::0           58                       # Occupied blocks per task id
system.cpu.icache.tags.age_task_id_blocks_1024::1           87                       # Occupied blocks per task id
system.cpu.icache.tags.age_task_id_blocks_1024::3          196                       # Occupied blocks per task id
system.cpu.icache.tags.age_task_id_blocks_1024::4          171                       # Occupied blocks per task id
system.cpu.icache.tags.avg_refs          58702.988789                       # Average number of references to valid blocks.
system.cpu.icache.tags.data_accesses        209454048                       # Number of data accesses
system.cpu.icache.tags.occ_blocks::.cpu.inst   504.164887                       # Average occupied blocks per requestor
system.cpu.icache.tags.occ_percent::.cpu.inst     0.984697                       # Average percentage of cache occupancy
system.cpu.icache.tags.occ_percent::total     0.984697                       # Average percentage of cache occupancy
system.cpu.icache.tags.occ_task_id_blocks::1024          512                       # Occupied blocks per task id
system.cpu.icache.tags.occ_task_id_percent::1024            1                       # Percentage of cache occupancy per task id
system.cpu.icache.tags.pwrStateResidencyTicks::UNDEFINED 150374319500                       # Cumulative time (in ticks) in various power states
system.cpu.icache.tags.sampled_refs              1784                       # Sample count of references to valid blocks.
system.cpu.icache.tags.tag_accesses         209454048                       # Number of tag accesses
system.cpu.icache.tags.tagsinuse           504.164887                       # Cycle average of tags in use
system.cpu.icache.tags.total_refs           104726132                       # Total number of references to valid blocks.
system.cpu.icache.tags.warmup_cycle             87500                       # Cycle when the warmup percentage was hit.
system.cpu.icache.writebacks::.writebacks         1272                       # number of writebacks
system.cpu.icache.writebacks::total              1272                       # number of writebacks
system.cpu.idle_fraction                     0.000000                       # Percentage of idle cycles
system.cpu.interrupts.pwrStateResidencyTicks::UNDEFINED 150374319500                       # Cumulative time (in ticks) in various power states
system.cpu.itb.pwrStateResidencyTicks::UNDEFINED 150374319500                       # Cumulative time (in ticks) in various power states
system.cpu.itb.rdAccesses                           0                       # TLB accesses on read requests
system.cpu.itb.rdMisses                             0                       # TLB misses on read requests
system.cpu.itb.walker.pwrStateResidencyTicks::UNDEFINED 150374319500                       # Cumulative time (in ticks) in various power states
system.cpu.itb.wrAccesses                   104726132                       # TLB accesses on write requests
system.cpu.itb.wrMisses                           113                       # TLB misses on write requests
system.cpu.itb_walker_cache.avg_blocked_cycles::no_mshrs          nan                       # average number of cycles each access was blocked
system.cpu.itb_walker_cache.avg_blocked_cycles::no_targets          nan                       # average number of cycles each access was blocked
system.cpu.itb_walker_cache.blocked::no_mshrs            0                       # number of cycles access was blocked
system.cpu.itb_walker_cache.blocked::no_targets            0                       # number of cycles access was blocked
system.cpu.itb_walker_cache.blocked_cycles::no_mshrs            0                       # number of cycles access was blocked
system.cpu.itb_walker_cache.blocked_cycles::no_targets            0                       # number of cycles access was blocked
system.cpu.itb_walker_cache.pwrStateResidencyTicks::UNDEFINED 150374319500                       # Cumulative time (in ticks) in various power states
system.cpu.itb_walker_cache.replacements            0                       # number of replacements
system.cpu.itb_walker_cache.tags.avg_refs          nan                       # Average number of references to valid blocks.
system.cpu.itb_walker_cache.tags.data_accesses            0                       # Number of data accesses
system.cpu.itb_walker_cache.tags.pwrStateResidencyTicks::UNDEFINED 150374319500                       # Cumulative time (in ticks) in various power states
system.cpu.itb_walker_cache.tags.sampled_refs            0                       # Sample count of references to valid blocks.
system.cpu.itb_walker_cache.tags.tag_accesses            0                       # Number of tag accesses
system.cpu.itb_walker_cache.tags.tagsinuse            0                       # Cycle average of tags in use
system.cpu.itb_walker_cache.tags.total_refs            0                       # Total number of references to valid blocks.
system.cpu.itb_walker_cache.tags.warmup_cycle            0                       # Cycle when the warmup percentage was hit.
system.cpu.not_idle_fraction                 1.000000                       # Percentage of non-idle cycles
system.cpu.numCycles                        300748639                       # number of cpu cycles simulated
system.cpu.numWorkItemsCompleted                    0                       # number of work items this cpu completed
system.cpu.numWorkItemsStarted                      0                       # number of work items this cpu started
system.cpu.num_busy_cycles               300748638.998000                       # Number of busy cycles
system.cpu.num_cc_register_reads             64196642                       # number of times the CC registers were read
system.cpu.num_cc_register_writes            58760935                       # number of times the CC registers were written
system.cpu.num_conditional_control_insts      9964203                       # number of instructions that are conditional controls
system.cpu.num_fp_alu_accesses                   9671                       # Number of float alu accesses
system.cpu.num_fp_insts                          9671                       # number of float instructions
system.cpu.num_fp_register_reads                12733                       # number of times the floating registers were read
system.cpu.num_fp_register_writes                6438                       # number of times the floating registers were written
system.cpu.num_func_calls                       32962                       # number of times a function call or return occured
system.cpu.num_idle_cycles                   0.002000                       # Number of idle cycles
system.cpu.num_int_alu_accesses             129068458                       # Number of integer alu accesses
system.cpu.num_int_insts                    129068458                       # number of integer instructions
system.cpu.num_int_register_reads           268967106                       # number of times the integer registers were read
system.cpu.num_int_register_writes          107920199                       # number of times the integer registers were written
system.cpu.num_load_insts                    22410819                       # Number of load instructions
system.cpu.num_mem_refs                      32727410                       # number of memory refs
system.cpu.num_store_insts                   10316591                       # Number of store instructions
system.cpu.num_vec_alu_accesses                     0                       # Number of vector alu accesses
system.cpu.num_vec_insts                            0                       # number of vector instructions
system.cpu.num_vec_register_reads                   0                       # number of times the vector registers were read
system.cpu.num_vec_register_writes                  0                       # number of times the vector registers were written
system.cpu.op_class::No_OpClass                 74869      0.06%      0.06% # Class of executed instruction
system.cpu.op_class::IntAlu                  96338142     74.60%     74.65% # Class of executed instruction
system.cpu.op_class::IntMult                       81      0.00%     74.65% # Class of executed instruction
system.cpu.op_class::IntDiv                      1647      0.00%     74.65% # Class of executed instruction
system.cpu.op_class::FloatAdd                     289      0.00%     74.66% # Class of executed instruction
system.cpu.op_class::FloatCmp                       0      0.00%     74.66% # Class of executed instruction
system.cpu.op_class::FloatCvt                     480      0.00%     74.66% # Class of executed instruction
system.cpu.op_class::FloatMult                      0      0.00%     74.66% # Class of executed instruction
system.cpu.op_class::FloatMultAcc                   0      0.00%     74.66% # Class of executed instruction
system.cpu.op_class::FloatDiv                       0      0.00%     74.66% # Class of executed instruction
system.cpu.op_class::FloatMisc                      0      0.00%     74.66% # Class of executed instruction
system.cpu.op_class::FloatSqrt                      0      0.00%     74.66% # Class of executed instruction
system.cpu.op_class::SimdAdd                      618      0.00%     74.66% # Class of executed instruction
system.cpu.op_class::SimdAddAcc                     0      0.00%     74.66% # Class of executed instruction
system.cpu.op_class::SimdAlu                     1021      0.00%     74.66% # Class of executed instruction
system.cpu.op_class::SimdCmp                        0      0.00%     74.66% # Class of executed instruction
system.cpu.op_class::SimdCvt                     1434      0.00%     74.66% # Class of executed instruction
system.cpu.op_class::SimdMisc                     983      0.00%     74.66% # Class of executed instruction
system.cpu.op_class::SimdMult                       0      0.00%     74.66% # Class of executed instruction
system.cpu.op_class::SimdMultAcc                    0      0.00%     74.66% # Class of executed instruction
system.cpu.op_class::SimdShift                    392      0.00%     74.66% # Class of executed instruction
system.cpu.op_class::SimdShiftAcc                   0      0.00%     74.66% # Class of executed instruction
system.cpu.op_class::SimdDiv                        0      0.00%     74.66% # Class of executed instruction
system.cpu.op_class::SimdSqrt                       0      0.00%     74.66% # Class of executed instruction
system.cpu.op_class::SimdFloatAdd                   0      0.00%     74.66% # Class of executed instruction
system.cpu.op_class::SimdFloatAlu                   0      0.00%     74.66% # Class of executed instruction
system.cpu.op_class::SimdFloatCmp                   0      0.00%     74.66% # Class of executed instruction
system.cpu.op_class::SimdFloatCvt                   0      0.00%     74.66% # Class of executed instruction
system.cpu.op_class::SimdFloatDiv                   0      0.00%     74.66% # Class of executed instruction
system.cpu.op_class::SimdFloatMisc                  0      0.00%     74.66% # Class of executed instruction
system.cpu.op_class::SimdFloatMult                  0      0.00%     74.66% # Class of executed instruction
system.cpu.op_class::SimdFloatMultAcc               0      0.00%     74.66% # Class of executed instruction
system.cpu.op_class::SimdFloatSqrt                  0      0.00%     74.66% # Class of executed instruction
system.cpu.op_class::SimdReduceAdd                  0      0.00%     74.66% # Class of executed instruction
system.cpu.op_class::SimdReduceAlu                  0      0.00%     74.66% # Class of executed instruction
system.cpu.op_class::SimdReduceCmp                  0      0.00%     74.66% # Class of executed instruction
system.cpu.op_class::SimdFloatReduceAdd             0      0.00%     74.66% # Class of executed instruction
system.cpu.op_class::SimdFloatReduceCmp             0      0.00%     74.66% # Class of executed instruction
system.cpu.op_class::SimdAes                        0      0.00%     74.66% # Class of executed instruction
system.cpu.op_class::SimdAesMix                     0      0.00%     74.66% # Class of executed instruction
system.cpu.op_class::SimdSha1Hash                   0      0.00%     74.66% # Class of executed instruction
system.cpu.op_class::SimdSha1Hash2                  0      0.00%     74.66% # Class of executed instruction
system.cpu.op_class::SimdSha256Hash                 0      0.00%     74.66% # Class of executed instruction
system.cpu.op_class::SimdSha256Hash2                0      0.00%     74.66% # Class of executed instruction
system.cpu.op_class::SimdShaSigma2                  0      0.00%     74.66% # Class of executed instruction
system.cpu.op_class::SimdShaSigma3                  0      0.00%     74.66% # Class of executed instruction
system.cpu.op_class::SimdPredAlu                    0      0.00%     74.66% # Class of executed instruction
system.cpu.op_class::MemRead                 22408407     17.35%     92.01% # Class of executed instruction
system.cpu.op_class::MemWrite                10314639      7.99%    100.00% # Class of executed instruction
system.cpu.op_class::FloatMemRead                2412      0.00%    100.00% # Class of executed instruction
system.cpu.op_class::FloatMemWrite               1952      0.00%    100.00% # Class of executed instruction
system.cpu.op_class::IprAccess                      0      0.00%    100.00% # Class of executed instruction
system.cpu.op_class::InstPrefetch                   0      0.00%    100.00% # Class of executed instruction
system.cpu.op_class::total                  129147366                       # Class of executed instruction
system.cpu.pwrStateResidencyTicks::ON    150374319500                       # Cumulative time (in ticks) in various power states
system.cpu.workload.numSyscalls                    95                       # Number of system calls
system.cpu_clk_domain.clock                       500                       # Clock period in ticks
system.cpu_voltage_domain.voltage                   1                       # Voltage in Volts
system.l2.ReadCleanReq_accesses::.cpu.inst         1784                       # number of ReadCleanReq accesses(hits+misses)
system.l2.ReadCleanReq_accesses::total           1784                       # number of ReadCleanReq accesses(hits+misses)
system.l2.ReadCleanReq_avg_miss_latency::.cpu.inst 95573.650794                       # average ReadCleanReq miss latency
system.l2.ReadCleanReq_avg_miss_latency::total 95573.650794                       # average ReadCleanReq miss latency
system.l2.ReadCleanReq_avg_mshr_miss_latency::.cpu.inst 85573.650794                       # average ReadCleanReq mshr miss latency
system.l2.ReadCleanReq_avg_mshr_miss_latency::total 85573.650794                       # average ReadCleanReq mshr miss latency
system.l2.ReadCleanReq_hits::.cpu.inst            209                       # number of ReadCleanReq hits
system.l2.ReadCleanReq_hits::total                209                       # number of ReadCleanReq hits
system.l2.ReadCleanReq_miss_latency::.cpu.inst    150528500                       # number of ReadCleanReq miss cycles
system.l2.ReadCleanReq_miss_latency::total    150528500                       # number of ReadCleanReq miss cycles
system.l2.ReadCleanReq_miss_rate::.cpu.inst     0.882848                       # miss rate for ReadCleanReq accesses
system.l2.ReadCleanReq_miss_rate::total      0.882848                       # miss rate for ReadCleanReq accesses
system.l2.ReadCleanReq_misses::.cpu.inst         1575                       # number of ReadCleanReq misses
system.l2.ReadCleanReq_misses::total             1575                       # number of ReadCleanReq misses
system.l2.ReadCleanReq_mshr_miss_latency::.cpu.inst    134778500                       # number of ReadCleanReq MSHR miss cycles
system.l2.ReadCleanReq_mshr_miss_latency::total    134778500                       # number of ReadCleanReq MSHR miss cycles
system.l2.ReadCleanReq_mshr_miss_rate::.cpu.inst     0.882848                       # mshr miss rate for ReadCleanReq accesses
system.l2.ReadCleanReq_mshr_miss_rate::total     0.882848                       # mshr miss rate for ReadCleanReq accesses
system.l2.ReadCleanReq_mshr_misses::.cpu.inst         1575                       # number of ReadCleanReq MSHR misses
system.l2.ReadCleanReq_mshr_misses::total         1575                       # number of ReadCleanReq MSHR misses
system.l2.ReadExReq_accesses::.cpu.data        259709                       # number of ReadExReq accesses(hits+misses)
system.l2.ReadExReq_accesses::total            259709                       # number of ReadExReq accesses(hits+misses)
system.l2.ReadExReq_avg_miss_latency::.cpu.data 109284.897671                       # average ReadExReq miss latency
system.l2.ReadExReq_avg_miss_latency::total 109284.897671                       # average ReadExReq miss latency
system.l2.ReadExReq_avg_mshr_miss_latency::.cpu.data 99284.897671                       # average ReadExReq mshr miss latency
system.l2.ReadExReq_avg_mshr_miss_latency::total 99284.897671                       # average ReadExReq mshr miss latency
system.l2.ReadExReq_hits::.cpu.data            238454                       # number of ReadExReq hits
system.l2.ReadExReq_hits::total                238454                       # number of ReadExReq hits
system.l2.ReadExReq_miss_latency::.cpu.data   2322850500                       # number of ReadExReq miss cycles
system.l2.ReadExReq_miss_latency::total    2322850500                       # number of ReadExReq miss cycles
system.l2.ReadExReq_miss_rate::.cpu.data     0.081842                       # miss rate for ReadExReq accesses
system.l2.ReadExReq_miss_rate::total         0.081842                       # miss rate for ReadExReq accesses
system.l2.ReadExReq_misses::.cpu.data           21255                       # number of ReadExReq misses
system.l2.ReadExReq_misses::total               21255                       # number of ReadExReq misses
system.l2.ReadExReq_mshr_miss_latency::.cpu.data   2110300500                       # number of ReadExReq MSHR miss cycles
system.l2.ReadExReq_mshr_miss_latency::total   2110300500                       # number of ReadExReq MSHR miss cycles
system.l2.ReadExReq_mshr_miss_rate::.cpu.data     0.081842                       # mshr miss rate for ReadExReq accesses
system.l2.ReadExReq_mshr_miss_rate::total     0.081842                       # mshr miss rate for ReadExReq accesses
system.l2.ReadExReq_mshr_misses::.cpu.data        21255                       # number of ReadExReq MSHR misses
system.l2.ReadExReq_mshr_misses::total          21255                       # number of ReadExReq MSHR misses
system.l2.ReadSharedReq_accesses::.cpu.data       610181                       # number of ReadSharedReq accesses(hits+misses)
system.l2.ReadSharedReq_accesses::.cpu.dcache.prefetcher       114894                       # number of ReadSharedReq accesses(hits+misses)
system.l2.ReadSharedReq_accesses::total        725075                       # number of ReadSharedReq accesses(hits+misses)
system.l2.ReadSharedReq_avg_miss_latency::.cpu.data 84683.652354                       # average ReadSharedReq miss latency
system.l2.ReadSharedReq_avg_miss_latency::.cpu.dcache.prefetcher 81273.467942                       # average ReadSharedReq miss latency
system.l2.ReadSharedReq_avg_miss_latency::total 81966.402502                       # average ReadSharedReq miss latency
system.l2.ReadSharedReq_avg_mshr_miss_latency::.cpu.data 74683.652354                       # average ReadSharedReq mshr miss latency
system.l2.ReadSharedReq_avg_mshr_miss_latency::.cpu.dcache.prefetcher 71273.467942                       # average ReadSharedReq mshr miss latency
system.l2.ReadSharedReq_avg_mshr_miss_latency::total 71966.402502                       # average ReadSharedReq mshr miss latency
system.l2.ReadSharedReq_hits::.cpu.data        608248                       # number of ReadSharedReq hits
system.l2.ReadSharedReq_hits::.cpu.dcache.prefetcher       107314                       # number of ReadSharedReq hits
system.l2.ReadSharedReq_hits::total            715562                       # number of ReadSharedReq hits
system.l2.ReadSharedReq_miss_latency::.cpu.data    163693500                       # number of ReadSharedReq miss cycles
system.l2.ReadSharedReq_miss_latency::.cpu.dcache.prefetcher    616052887                       # number of ReadSharedReq miss cycles
system.l2.ReadSharedReq_miss_latency::total    779746387                       # number of ReadSharedReq miss cycles
system.l2.ReadSharedReq_miss_rate::.cpu.data     0.003168                       # miss rate for ReadSharedReq accesses
system.l2.ReadSharedReq_miss_rate::.cpu.dcache.prefetcher     0.065974                       # miss rate for ReadSharedReq accesses
system.l2.ReadSharedReq_miss_rate::total     0.013120                       # miss rate for ReadSharedReq accesses
system.l2.ReadSharedReq_misses::.cpu.data         1933                       # number of ReadSharedReq misses
system.l2.ReadSharedReq_misses::.cpu.dcache.prefetcher         7580                       # number of ReadSharedReq misses
system.l2.ReadSharedReq_misses::total            9513                       # number of ReadSharedReq misses
system.l2.ReadSharedReq_mshr_miss_latency::.cpu.data    144363500                       # number of ReadSharedReq MSHR miss cycles
system.l2.ReadSharedReq_mshr_miss_latency::.cpu.dcache.prefetcher    540252887                       # number of ReadSharedReq MSHR miss cycles
system.l2.ReadSharedReq_mshr_miss_latency::total    684616387                       # number of ReadSharedReq MSHR miss cycles
system.l2.ReadSharedReq_mshr_miss_rate::.cpu.data     0.003168                       # mshr miss rate for ReadSharedReq accesses
system.l2.ReadSharedReq_mshr_miss_rate::.cpu.dcache.prefetcher     0.065974                       # mshr miss rate for ReadSharedReq accesses
system.l2.ReadSharedReq_mshr_miss_rate::total     0.013120                       # mshr miss rate for ReadSharedReq accesses
system.l2.ReadSharedReq_mshr_misses::.cpu.data         1933                       # number of ReadSharedReq MSHR misses
system.l2.ReadSharedReq_mshr_misses::.cpu.dcache.prefetcher         7580                       # number of ReadSharedReq MSHR misses
system.l2.ReadSharedReq_mshr_misses::total         9513                       # number of ReadSharedReq MSHR misses
system.l2.WritebackClean_accesses::.writebacks         1272                       # number of WritebackClean accesses(hits+misses)
system.l2.WritebackClean_accesses::total         1272                       # number of WritebackClean accesses(hits+misses)
system.l2.WritebackClean_hits::.writebacks         1272                       # number of WritebackClean hits
system.l2.WritebackClean_hits::total             1272                       # number of WritebackClean hits
system.l2.WritebackDirty_accesses::.writebacks       981121                       # number of WritebackDirty accesses(hits+misses)
system.l2.WritebackDirty_accesses::total       981121                       # number of WritebackDirty accesses(hits+misses)
system.l2.WritebackDirty_hits::.writebacks       981121                       # number of WritebackDirty hits
system.l2.WritebackDirty_hits::total           981121                       # number of WritebackDirty hits
system.l2.avg_blocked_cycles::no_mshrs            nan                       # average number of cycles each access was blocked
system.l2.avg_blocked_cycles::no_targets          nan                       # average number of cycles each access was blocked
system.l2.blocked::no_mshrs                         0                       # number of cycles access was blocked
system.l2.blocked::no_targets                       0                       # number of cycles access was blocked
system.l2.blocked_cycles::no_mshrs                  0                       # number of cycles access was blocked
system.l2.blocked_cycles::no_targets                0                       # number of cycles access was blocked
system.l2.demand_accesses::.cpu.inst             1784                       # number of demand (read+write) accesses
system.l2.demand_accesses::.cpu.data           869890                       # number of demand (read+write) accesses
system.l2.demand_accesses::.cpu.dcache.prefetcher       114894                       # number of demand (read+write) accesses
system.l2.demand_accesses::total               986568                       # number of demand (read+write) accesses
system.l2.demand_avg_miss_latency::.cpu.inst 95573.650794                       # average overall miss latency
system.l2.demand_avg_miss_latency::.cpu.data 107234.086597                       # average overall miss latency
system.l2.demand_avg_miss_latency::.cpu.dcache.prefetcher 81273.467942                       # average overall miss latency
system.l2.demand_avg_miss_latency::total 100582.054448                       # average overall miss latency
system.l2.demand_avg_mshr_miss_latency::.cpu.inst 85573.650794                       # average overall mshr miss latency
system.l2.demand_avg_mshr_miss_latency::.cpu.data 97234.086597                       # average overall mshr miss latency
system.l2.demand_avg_mshr_miss_latency::.cpu.dcache.prefetcher 71273.467942                       # average overall mshr miss latency
system.l2.demand_avg_mshr_miss_latency::total 90582.054448                       # average overall mshr miss latency
system.l2.demand_hits::.cpu.inst                  209                       # number of demand (read+write) hits
system.l2.demand_hits::.cpu.data               846702                       # number of demand (read+write) hits
system.l2.demand_hits::.cpu.dcache.prefetcher       107314                       # number of demand (read+write) hits
system.l2.demand_hits::total                   954225                       # number of demand (read+write) hits
system.l2.demand_miss_latency::.cpu.inst    150528500                       # number of demand (read+write) miss cycles
system.l2.demand_miss_latency::.cpu.data   2486544000                       # number of demand (read+write) miss cycles
system.l2.demand_miss_latency::.cpu.dcache.prefetcher    616052887                       # number of demand (read+write) miss cycles
system.l2.demand_miss_latency::total       3253125387                       # number of demand (read+write) miss cycles
system.l2.demand_miss_rate::.cpu.inst        0.882848                       # miss rate for demand accesses
system.l2.demand_miss_rate::.cpu.data        0.026656                       # miss rate for demand accesses
system.l2.demand_miss_rate::.cpu.dcache.prefetcher     0.065974                       # miss rate for demand accesses
system.l2.demand_miss_rate::total            0.032783                       # miss rate for demand accesses
system.l2.demand_misses::.cpu.inst               1575                       # number of demand (read+write) misses
system.l2.demand_misses::.cpu.data              23188                       # number of demand (read+write) misses
system.l2.demand_misses::.cpu.dcache.prefetcher         7580                       # number of demand (read+write) misses
system.l2.demand_misses::total                  32343                       # number of demand (read+write) misses
system.l2.demand_mshr_miss_latency::.cpu.inst    134778500                       # number of demand (read+write) MSHR miss cycles
system.l2.demand_mshr_miss_latency::.cpu.data   2254664000                       # number of demand (read+write) MSHR miss cycles
system.l2.demand_mshr_miss_latency::.cpu.dcache.prefetcher    540252887                       # number of demand (read+write) MSHR miss cycles
system.l2.demand_mshr_miss_latency::total   2929695387                       # number of demand (read+write) MSHR miss cycles
system.l2.demand_mshr_miss_rate::.cpu.inst     0.882848                       # mshr miss rate for demand accesses
system.l2.demand_mshr_miss_rate::.cpu.data     0.026656                       # mshr miss rate for demand accesses
system.l2.demand_mshr_miss_rate::.cpu.dcache.prefetcher     0.065974                       # mshr miss rate for demand accesses
system.l2.demand_mshr_miss_rate::total       0.032783                       # mshr miss rate for demand accesses
system.l2.demand_mshr_misses::.cpu.inst          1575                       # number of demand (read+write) MSHR misses
system.l2.demand_mshr_misses::.cpu.data         23188                       # number of demand (read+write) MSHR misses
system.l2.demand_mshr_misses::.cpu.dcache.prefetcher         7580                       # number of demand (read+write) MSHR misses
system.l2.demand_mshr_misses::total             32343                       # number of demand (read+write) MSHR misses
system.l2.overall_accesses::.cpu.inst            1784                       # number of overall (read+write) accesses
system.l2.overall_accesses::.cpu.data          869890                       # number of overall (read+write) accesses
system.l2.overall_accesses::.cpu.dcache.prefetcher       114894                       # number of overall (read+write) accesses
system.l2.overall_accesses::total              986568                       # number of overall (read+write) accesses
system.l2.overall_avg_miss_latency::.cpu.inst 95573.650794                       # average overall miss latency
system.l2.overall_avg_miss_latency::.cpu.data 107234.086597                       # average overall miss latency
system.l2.overall_avg_miss_latency::.cpu.dcache.prefetcher 81273.467942                       # average overall miss latency
system.l2.overall_avg_miss_latency::total 100582.054448                       # average overall miss latency
system.l2.overall_avg_mshr_miss_latency::.cpu.inst 85573.650794                       # average overall mshr miss latency
system.l2.overall_avg_mshr_miss_latency::.cpu.data 97234.086597                       # average overall mshr miss latency
system.l2.overall_avg_mshr_miss_latency::.cpu.dcache.prefetcher 71273.467942                       # average overall mshr miss latency
system.l2.overall_avg_mshr_miss_latency::total 90582.054448                       # average overall mshr miss latency
system.l2.overall_hits::.cpu.inst                 209                       # number of overall hits
system.l2.overall_hits::.cpu.data              846702                       # number of overall hits
system.l2.overall_hits::.cpu.dcache.prefetcher       107314                       # number of overall hits
system.l2.overall_hits::total                  954225                       # number of overall hits
system.l2.overall_miss_latency::.cpu.inst    150528500                       # number of overall miss cycles
system.l2.overall_miss_latency::.cpu.data   2486544000                       # number of overall miss cycles
system.l2.overall_miss_latency::.cpu.dcache.prefetcher    616052887                       # number of overall miss cycles
system.l2.overall_miss_latency::total      3253125387                       # number of overall miss cycles
system.l2.overall_miss_rate::.cpu.inst       0.882848                       # miss rate for overall accesses
system.l2.overall_miss_rate::.cpu.data       0.026656                       # miss rate for overall accesses
system.l2.overall_miss_rate::.cpu.dcache.prefetcher     0.065974                       # miss rate for overall accesses
system.l2.overall_miss_rate::total           0.032783                       # miss rate for overall accesses
system.l2.overall_misses::.cpu.inst              1575                       # number of overall misses
system.l2.overall_misses::.cpu.data             23188                       # number of overall misses
system.l2.overall_misses::.cpu.dcache.prefetcher         7580                       # number of overall misses
system.l2.overall_misses::total                 32343                       # number of overall misses
system.l2.overall_mshr_miss_latency::.cpu.inst    134778500                       # number of overall MSHR miss cycles
system.l2.overall_mshr_miss_latency::.cpu.data   2254664000                       # number of overall MSHR miss cycles
system.l2.overall_mshr_miss_latency::.cpu.dcache.prefetcher    540252887                       # number of overall MSHR miss cycles
system.l2.overall_mshr_miss_latency::total   2929695387                       # number of overall MSHR miss cycles
system.l2.overall_mshr_miss_rate::.cpu.inst     0.882848                       # mshr miss rate for overall accesses
system.l2.overall_mshr_miss_rate::.cpu.data     0.026656                       # mshr miss rate for overall accesses
system.l2.overall_mshr_miss_rate::.cpu.dcache.prefetcher     0.065974                       # mshr miss rate for overall accesses
system.l2.overall_mshr_miss_rate::total      0.032783                       # mshr miss rate for overall accesses
system.l2.overall_mshr_misses::.cpu.inst         1575                       # number of overall MSHR misses
system.l2.overall_mshr_misses::.cpu.data        23188                       # number of overall MSHR misses
system.l2.overall_mshr_misses::.cpu.dcache.prefetcher         7580                       # number of overall MSHR misses
system.l2.overall_mshr_misses::total            32343                       # number of overall MSHR misses
system.l2.pwrStateResidencyTicks::UNDEFINED 150374319500                       # Cumulative time (in ticks) in various power states
system.l2.replacements                           1517                       # number of replacements
system.l2.tags.age_task_id_blocks_1022::3           98                       # Occupied blocks per task id
system.l2.tags.age_task_id_blocks_1022::4         7285                       # Occupied blocks per task id
system.l2.tags.age_task_id_blocks_1024::0           78                       # Occupied blocks per task id
system.l2.tags.age_task_id_blocks_1024::1          100                       # Occupied blocks per task id
system.l2.tags.age_task_id_blocks_1024::3          534                       # Occupied blocks per task id
system.l2.tags.age_task_id_blocks_1024::4        22937                       # Occupied blocks per task id
system.l2.tags.avg_refs                     60.573197                       # Average number of references to valid blocks.
system.l2.tags.data_accesses                 15805325                       # Number of data accesses
system.l2.tags.occ_blocks::.writebacks      41.445474                       # Average occupied blocks per requestor
system.l2.tags.occ_blocks::.cpu.inst       744.575442                       # Average occupied blocks per requestor
system.l2.tags.occ_blocks::.cpu.data     19367.140333                       # Average occupied blocks per requestor
system.l2.tags.occ_blocks::.cpu.dcache.prefetcher  6542.806209                       # Average occupied blocks per requestor
system.l2.tags.occ_percent::.writebacks      0.001265                       # Average percentage of cache occupancy
system.l2.tags.occ_percent::.cpu.inst        0.022723                       # Average percentage of cache occupancy
system.l2.tags.occ_percent::.cpu.data        0.591038                       # Average percentage of cache occupancy
system.l2.tags.occ_percent::.cpu.dcache.prefetcher     0.199671                       # Average percentage of cache occupancy
system.l2.tags.occ_percent::total            0.814696                       # Average percentage of cache occupancy
system.l2.tags.occ_task_id_blocks::1022          7383                       # Occupied blocks per task id
system.l2.tags.occ_task_id_blocks::1024         23649                       # Occupied blocks per task id
system.l2.tags.occ_task_id_percent::1022     0.225311                       # Percentage of cache occupancy per task id
system.l2.tags.occ_task_id_percent::1024     0.721710                       # Percentage of cache occupancy per task id
system.l2.tags.pwrStateResidencyTicks::UNDEFINED 150374319500                       # Cumulative time (in ticks) in various power states
system.l2.tags.sampled_refs                     32549                       # Sample count of references to valid blocks.
system.l2.tags.tag_accesses                  15805325                       # Number of tag accesses
system.l2.tags.tagsinuse                 26695.967459                       # Cycle average of tags in use
system.l2.tags.total_refs                     1971597                       # Total number of references to valid blocks.
system.l2.tags.warmup_cycle                     77000                       # Cycle when the warmup percentage was hit.
system.l2.writebacks::.writebacks                 547                       # number of writebacks
system.l2.writebacks::total                       547                       # number of writebacks
system.mem_ctrls.avgBusLat                    5000.00                       # Average bus latency per DRAM burst
system.mem_ctrls.avgGap                    4572035.25                       # Average gap between requests
system.mem_ctrls.avgMemAccLat                49479.58                       # Average memory access latency per DRAM burst
system.mem_ctrls.avgPriority_.writebacks::samples       547.00                       # Average QoS priority value for accepted requests
system.mem_ctrls.avgPriority_.cpu.inst::samples      1575.00                       # Average QoS priority value for accepted requests
system.mem_ctrls.avgPriority_.cpu.data::samples     23156.00                       # Average QoS priority value for accepted requests
system.mem_ctrls.avgPriority_.cpu.dcache.prefetcher::samples      7565.00                       # Average QoS priority value for accepted requests
system.mem_ctrls.avgQLat                     30729.58                       # Average queueing delay per DRAM burst
system.mem_ctrls.avgRdBW                        13.75                       # Average DRAM read bandwidth in MiByte/s
system.mem_ctrls.avgRdBWSys                     13.77                       # Average system read bandwidth in MiByte/s
system.mem_ctrls.avgRdQLen                       1.07                       # Average read queue length when enqueuing
system.mem_ctrls.avgWrBW                         0.22                       # Average achieved write bandwidth in MiByte/s
system.mem_ctrls.avgWrBWSys                      0.23                       # Average system write bandwidth in MiByte/s
system.mem_ctrls.avgWrQLen                      22.63                       # Average write queue length when enqueuing
system.mem_ctrls.busUtil                         0.11                       # Data bus utilization in percentage
system.mem_ctrls.busUtilRead                     0.11                       # Data bus utilization in percentage for reads
system.mem_ctrls.busUtilWrite                    0.00                       # Data bus utilization in percentage for writes
system.mem_ctrls.bw_inst_read::.cpu.inst       670327                       # Instruction read bandwidth from this memory (bytes/s)
system.mem_ctrls.bw_inst_read::total           670327                       # Instruction read bandwidth from this memory (bytes/s)
system.mem_ctrls.bw_read::.cpu.inst            670327                       # Total read bandwidth from this memory (bytes/s)
system.mem_ctrls.bw_read::.cpu.data           9868919                       # Total read bandwidth from this memory (bytes/s)
system.mem_ctrls.bw_read::.cpu.dcache.prefetcher      3226083                       # Total read bandwidth from this memory (bytes/s)
system.mem_ctrls.bw_read::total              13765329                       # Total read bandwidth from this memory (bytes/s)
system.mem_ctrls.bw_total::.writebacks         232806                       # Total bandwidth to/from this memory (bytes/s)
system.mem_ctrls.bw_total::.cpu.inst           670327                       # Total bandwidth to/from this memory (bytes/s)
system.mem_ctrls.bw_total::.cpu.data          9868919                       # Total bandwidth to/from this memory (bytes/s)
system.mem_ctrls.bw_total::.cpu.dcache.prefetcher      3226083                       # Total bandwidth to/from this memory (bytes/s)
system.mem_ctrls.bw_total::total             13998135                       # Total bandwidth to/from this memory (bytes/s)
system.mem_ctrls.bw_write::.writebacks         232806                       # Write bandwidth from this memory (bytes/s)
system.mem_ctrls.bw_write::total               232806                       # Write bandwidth from this memory (bytes/s)
system.mem_ctrls.bytesPerActivate::samples        15173                       # Bytes accessed per row activation
system.mem_ctrls.bytesPerActivate::mean    138.384762                       # Bytes accessed per row activation
system.mem_ctrls.bytesPerActivate::gmean    88.232250                       # Bytes accessed per row activation
system.mem_ctrls.bytesPerActivate::stdev   214.444534                       # Bytes accessed per row activation
system.mem_ctrls.bytesPerActivate::0-127        11993     79.04%     79.04% # Bytes accessed per row activation
system.mem_ctrls.bytesPerActivate::128-255         1498      9.87%     88.91% # Bytes accessed per row activation
system.mem_ctrls.bytesPerActivate::256-383          259      1.71%     90.62% # Bytes accessed per row activation
system.mem_ctrls.bytesPerActivate::384-511          411      2.71%     93.33% # Bytes accessed per row activation
system.mem_ctrls.bytesPerActivate::512-639          168      1.11%     94.44% # Bytes accessed per row activation
system.mem_ctrls.bytesPerActivate::640-767          101      0.67%     95.10% # Bytes accessed per row activation
system.mem_ctrls.bytesPerActivate::768-895           59      0.39%     95.49% # Bytes accessed per row activation
system.mem_ctrls.bytesPerActivate::896-1023           99      0.65%     96.14% # Bytes accessed per row activation
system.mem_ctrls.bytesPerActivate::1024-1151          585      3.86%    100.00% # Bytes accessed per row activation
system.mem_ctrls.bytesPerActivate::total        15173                       # Bytes accessed per row activation
system.mem_ctrls.bytesReadDRAM                2066944                       # Total number of bytes read from DRAM
system.mem_ctrls.bytesReadSys                 2069952                       # Total read bytes from the system interface side
system.mem_ctrls.bytesReadWrQ                    3008                       # Total number of bytes read from write queue
system.mem_ctrls.bytesWritten                   33344                       # Total number of bytes written to DRAM
system.mem_ctrls.bytesWrittenSys                35008                       # Total written bytes from the system interface side
system.mem_ctrls.bytes_inst_read::.cpu.inst       100800                       # Number of instructions bytes read from this memory
system.mem_ctrls.bytes_inst_read::total        100800                       # Number of instructions bytes read from this memory
system.mem_ctrls.bytes_read::.cpu.inst         100800                       # Number of bytes read from this memory
system.mem_ctrls.bytes_read::.cpu.data        1484032                       # Number of bytes read from this memory
system.mem_ctrls.bytes_read::.cpu.dcache.prefetcher       485120                       # Number of bytes read from this memory
system.mem_ctrls.bytes_read::total            2069952                       # Number of bytes read from this memory
system.mem_ctrls.bytes_written::.writebacks        35008                       # Number of bytes written to this memory
system.mem_ctrls.bytes_written::total           35008                       # Number of bytes written to this memory
system.mem_ctrls.masterReadAccesses::.cpu.inst         1575                       # Per-master read serviced memory accesses
system.mem_ctrls.masterReadAccesses::.cpu.data        23188                       # Per-master read serviced memory accesses
system.mem_ctrls.masterReadAccesses::.cpu.dcache.prefetcher         7580                       # Per-master read serviced memory accesses
system.mem_ctrls.masterReadAvgLat::.cpu.inst     44744.92                       # Per-master read average memory access latency
system.mem_ctrls.masterReadAvgLat::.cpu.data     56176.55                       # Per-master read average memory access latency
system.mem_ctrls.masterReadAvgLat::.cpu.dcache.prefetcher     29669.86                       # Per-master read average memory access latency
system.mem_ctrls.masterReadBytes::.cpu.inst       100800                       # Per-master bytes read from memory
system.mem_ctrls.masterReadBytes::.cpu.data      1481984                       # Per-master bytes read from memory
system.mem_ctrls.masterReadBytes::.cpu.dcache.prefetcher       484160                       # Per-master bytes read from memory
system.mem_ctrls.masterReadRate::.cpu.inst 670327.222993684118                       # Per-master bytes read from memory rate (Bytes/sec)
system.mem_ctrls.masterReadRate::.cpu.data 9855299.794058253989                       # Per-master bytes read from memory rate (Bytes/sec)
system.mem_ctrls.masterReadRate::.cpu.dcache.prefetcher 3219698.693299822509                       # Per-master bytes read from memory rate (Bytes/sec)
system.mem_ctrls.masterReadTotalLat::.cpu.inst     70473256                       # Per-master read total memory access latency
system.mem_ctrls.masterReadTotalLat::.cpu.data   1302621730                       # Per-master read total memory access latency
system.mem_ctrls.masterReadTotalLat::.cpu.dcache.prefetcher    224897533                       # Per-master read total memory access latency
system.mem_ctrls.masterWriteAccesses::.writebacks          547                       # Per-master write serviced memory accesses
system.mem_ctrls.masterWriteAvgLat::.writebacks 6213260959.30                       # Per-master write average memory access latency
system.mem_ctrls.masterWriteBytes::.writebacks        33344                       # Per-master bytes write to memory
system.mem_ctrls.masterWriteRate::.writebacks 221739.989320450433                       # Per-master bytes write to memory rate (Bytes/sec)
system.mem_ctrls.masterWriteTotalLat::.writebacks 3398653744735                       # Per-master write total memory access latency
system.mem_ctrls.mergedWrBursts                     0                       # Number of DRAM write bursts merged with an existing one
system.mem_ctrls.neitherReadNorWriteReqs            0                       # Number of requests that are neither read nor write
system.mem_ctrls.numRdRetry                         0                       # Number of times read queue was full causing retry
system.mem_ctrls.numReadWriteTurnArounds           31                       # Number of turnarounds from READ to WRITE
system.mem_ctrls.numStayReadState               69099                       # Number of times bus staying in READ state
system.mem_ctrls.numStayWriteState                501                       # Number of times bus staying in WRITE state
system.mem_ctrls.numWrRetry                         0                       # Number of times write queue was full causing retry
system.mem_ctrls.numWriteReadTurnArounds           31                       # Number of turnarounds from WRITE to READ
system.mem_ctrls.num_reads::.cpu.inst            1575                       # Number of read requests responded to by this memory
system.mem_ctrls.num_reads::.cpu.data           23188                       # Number of read requests responded to by this memory
system.mem_ctrls.num_reads::.cpu.dcache.prefetcher         7580                       # Number of read requests responded to by this memory
system.mem_ctrls.num_reads::total               32343                       # Number of read requests responded to by this memory
system.mem_ctrls.num_writes::.writebacks          547                       # Number of write requests responded to by this memory
system.mem_ctrls.num_writes::total                547                       # Number of write requests responded to by this memory
system.mem_ctrls.pageHitRate                    53.71                       # Row buffer hit rate, read and write combined
system.mem_ctrls.peakBW                      12800.00                       # Theoretical peak bandwidth in MiByte/s
system.mem_ctrls.perBankRdBursts::0              2192                       # Per bank write bursts
system.mem_ctrls.perBankRdBursts::1              2037                       # Per bank write bursts
system.mem_ctrls.perBankRdBursts::2              1988                       # Per bank write bursts
system.mem_ctrls.perBankRdBursts::3              1996                       # Per bank write bursts
system.mem_ctrls.perBankRdBursts::4              2054                       # Per bank write bursts
system.mem_ctrls.perBankRdBursts::5              2054                       # Per bank write bursts
system.mem_ctrls.perBankRdBursts::6              1952                       # Per bank write bursts
system.mem_ctrls.perBankRdBursts::7              1892                       # Per bank write bursts
system.mem_ctrls.perBankRdBursts::8              1752                       # Per bank write bursts
system.mem_ctrls.perBankRdBursts::9              1833                       # Per bank write bursts
system.mem_ctrls.perBankRdBursts::10             2113                       # Per bank write bursts
system.mem_ctrls.perBankRdBursts::11             2113                       # Per bank write bursts
system.mem_ctrls.perBankRdBursts::12             2072                       # Per bank write bursts
system.mem_ctrls.perBankRdBursts::13             2032                       # Per bank write bursts
system.mem_ctrls.perBankRdBursts::14             2030                       # Per bank write bursts
[...]
system.mem_ctrls.wrQLenPdf::26                     31                       # What write queue length does an incoming req see
system.mem_ctrls.wrQLenPdf::27                     31                       # What write queue length does an incoming req see
system.mem_ctrls.wrQLenPdf::28                     31                       # What write queue length does an incoming req see
system.mem_ctrls.wrQLenPdf::29                     31                       # What write queue length does an incoming req see
system.mem_ctrls.wrQLenPdf::30                     31                       # What write queue length does an incoming req see
system.mem_ctrls.wrQLenPdf::31                     31                       # What write queue length does an incoming req see
system.mem_ctrls.wrQLenPdf::32                     31                       # What write queue length does an incoming req see
system.mem_ctrls.wrQLenPdf::33                      0                       # What write queue length does an incoming req see
system.mem_ctrls.wrQLenPdf::34                      0                       # What write queue length does an incoming req see
system.mem_ctrls.wrQLenPdf::35                      0                       # What write queue length does an incoming req see
system.mem_ctrls.wrQLenPdf::36                      0                       # What write queue length does an incoming req see
system.mem_ctrls.wrQLenPdf::37                      0                       # What write queue length does an incoming req see
system.mem_ctrls.wrQLenPdf::38                      0                       # What write queue length does an incoming req see
system.mem_ctrls.wrQLenPdf::39                      0                       # What write queue length does an incoming req see
system.mem_ctrls.wrQLenPdf::40                      0                       # What write queue length does an incoming req see
system.mem_ctrls.wrQLenPdf::41                      0                       # What write queue length does an incoming req see
system.mem_ctrls.wrQLenPdf::42                      0                       # What write queue length does an incoming req see
system.mem_ctrls.wrQLenPdf::43                      0                       # What write queue length does an incoming req see
system.mem_ctrls.wrQLenPdf::44                      0                       # What write queue length does an incoming req see
system.mem_ctrls.wrQLenPdf::45                      0                       # What write queue length does an incoming req see
system.mem_ctrls.wrQLenPdf::46                      0                       # What write queue length does an incoming req see
system.mem_ctrls.wrQLenPdf::47                      0                       # What write queue length does an incoming req see
system.mem_ctrls.wrQLenPdf::48                      0                       # What write queue length does an incoming req see
system.mem_ctrls.wrQLenPdf::49                      0                       # What write queue length does an incoming req see
system.mem_ctrls.wrQLenPdf::50                      0                       # What write queue length does an incoming req see
system.mem_ctrls.wrQLenPdf::51                      0                       # What write queue length does an incoming req see
system.mem_ctrls.wrQLenPdf::52                      0                       # What write queue length does an incoming req see
system.mem_ctrls.wrQLenPdf::53                      0                       # What write queue length does an incoming req see
system.mem_ctrls.wrQLenPdf::54                      0                       # What write queue length does an incoming req see
system.mem_ctrls.wrQLenPdf::55                      0                       # What write queue length does an incoming req see
system.mem_ctrls.wrQLenPdf::56                      0                       # What write queue length does an incoming req see
system.mem_ctrls.wrQLenPdf::57                      0                       # What write queue length does an incoming req see
system.mem_ctrls.wrQLenPdf::58                      0                       # What write queue length does an incoming req see
system.mem_ctrls.wrQLenPdf::59                      0                       # What write queue length does an incoming req see
system.mem_ctrls.wrQLenPdf::60                      0                       # What write queue length does an incoming req see
system.mem_ctrls.wrQLenPdf::61                      0                       # What write queue length does an incoming req see
system.mem_ctrls.wrQLenPdf::62                      0                       # What write queue length does an incoming req see
system.mem_ctrls.wrQLenPdf::63                      0                       # What write queue length does an incoming req see
system.mem_ctrls.writeBursts                      547                       # Number of DRAM write bursts, including those merged in the write queue
system.mem_ctrls.writePktSize::0                    0                       # Write request sizes (log2)
system.mem_ctrls.writePktSize::1                    0                       # Write request sizes (log2)
system.mem_ctrls.writePktSize::2                    0                       # Write request sizes (log2)
system.mem_ctrls.writePktSize::3                    0                       # Write request sizes (log2)
system.mem_ctrls.writePktSize::4                    0                       # Write request sizes (log2)
system.mem_ctrls.writePktSize::5                    0                       # Write request sizes (log2)
system.mem_ctrls.writePktSize::6                  547                       # Write request sizes (log2)
system.mem_ctrls.writeReqs                        547                       # Number of write requests accepted
system.mem_ctrls.writeRowHitRate                72.76                       # Row buffer hit rate for writes
system.mem_ctrls.writeRowHits                     398                       # Number of row buffer hits during writes
system.mem_ctrls_0.actBackEnergy            461421270                       # Energy for active background per rank (pJ)
system.mem_ctrls_0.actEnergy                 52878840                       # Energy for activate commands per rank (pJ)
system.mem_ctrls_0.actPowerDownEnergy      4943496570                       # Energy for active power-down per rank (pJ)
system.mem_ctrls_0.averagePower            271.239438                       # Core power per rank (mW)
system.mem_ctrls_0.memoryStateTime::IDLE    113723000                       # Time in different power states
system.mem_ctrls_0.memoryStateTime::REF     513240000                       # Time in different power states
system.mem_ctrls_0.memoryStateTime::SREF 134899725500                       # Time in different power states
system.mem_ctrls_0.memoryStateTime::PRE_PDN   3454306967                       # Time in different power states
system.mem_ctrls_0.memoryStateTime::ACT     552631525                       # Time in different power states
system.mem_ctrls_0.memoryStateTime::ACT_PDN  10840692508                       # Time in different power states
system.mem_ctrls_0.preBackEnergy             64411200                       # Energy for precharge background per rank (pJ)
system.mem_ctrls_0.preEnergy                 28098180                       # Energy for precharge commands per rank (pJ)
system.mem_ctrls_0.prePowerDownEnergy      1326325440                       # Energy for precharge power-down per rank (pJ)
system.mem_ctrls_0.readEnergy               115418100                       # Energy for read commands per rank (pJ)
system.mem_ctrls_0.refreshEnergy         1213299360.000000                       # Energy for refresh commands per rank (pJ)
system.mem_ctrls_0.selfRefreshEnergy      32581366080                       # Energy for self refresh per rank (pJ)
system.mem_ctrls_0.totalEnergy            40787445840                       # Total energy per rank (pJ)
system.mem_ctrls_0.totalIdleTime         149194681225                       # Total Idle time Per DRAM Rank
system.mem_ctrls_0.writeEnergy                 730800                       # Energy for write commands per rank (pJ)
system.mem_ctrls_1.actBackEnergy            482541480                       # Energy for active background per rank (pJ)
system.mem_ctrls_1.actEnergy                 55477800                       # Energy for activate commands per rank (pJ)
system.mem_ctrls_1.actPowerDownEnergy      5065823130                       # Energy for active power-down per rank (pJ)
system.mem_ctrls_1.averagePower            272.063517                       # Core power per rank (mW)
system.mem_ctrls_1.memoryStateTime::IDLE    121123749                       # Time in different power states
system.mem_ctrls_1.memoryStateTime::REF     526500000                       # Time in different power states
system.mem_ctrls_1.memoryStateTime::SREF 134499749250                       # Time in different power states
system.mem_ctrls_1.memoryStateTime::PRE_PDN   3530390689                       # Time in different power states
system.mem_ctrls_1.memoryStateTime::ACT     586931765                       # Time in different power states
system.mem_ctrls_1.memoryStateTime::ACT_PDN  11109624047                       # Time in different power states
system.mem_ctrls_1.preBackEnergy             67627200                       # Energy for precharge background per rank (pJ)
system.mem_ctrls_1.preEnergy                 29483355                       # Energy for precharge commands per rank (pJ)
system.mem_ctrls_1.prePowerDownEnergy      1355711520                       # Energy for precharge power-down per rank (pJ)
system.mem_ctrls_1.readEnergy               115175340                       # Energy for read commands per rank (pJ)
system.mem_ctrls_1.refreshEnergy         1244646000.000000                       # Energy for refresh commands per rank (pJ)
system.mem_ctrls_1.selfRefreshEnergy      32492670600                       # Energy for self refresh per rank (pJ)
system.mem_ctrls_1.totalEnergy            40911366285                       # Total energy per rank (pJ)
system.mem_ctrls_1.totalIdleTime         149139529236                       # Total Idle time Per DRAM Rank
system.mem_ctrls_1.writeEnergy                1988820                       # Energy for write commands per rank (pJ)
system.membus.pkt_count_system.l2.mem_side::system.mem_ctrls.port        65960                       # Packet count per connected master and slave (bytes)
system.membus.pkt_count_system.l2.mem_side::total        65960                       # Packet count per connected master and slave (bytes)
system.membus.pkt_count::total                  65960                       # Packet count per connected master and slave (bytes)
system.membus.pkt_size_system.l2.mem_side::system.mem_ctrls.port      2104960                       # Cumulative packet size per connected master and slave (bytes)
system.membus.pkt_size_system.l2.mem_side::total      2104960                       # Cumulative packet size per connected master and slave (bytes)
system.membus.pkt_size::total                 2104960                       # Cumulative packet size per connected master and slave (bytes)
system.membus.pwrStateResidencyTicks::UNDEFINED 150374319500                       # Cumulative time (in ticks) in various power states
system.membus.reqLayer2.occupancy            37050916                       # Layer occupancy (ticks)
system.membus.reqLayer2.utilization               0.0                       # Layer utilization (%)
system.membus.respLayer1.occupancy          173387729                       # Layer occupancy (ticks)
system.membus.respLayer1.utilization              0.1                       # Layer utilization (%)
system.membus.snoopTraffic                          0                       # Total snoop traffic (bytes)
system.membus.snoop_fanout::samples             32343                       # Request fanout histogram
system.membus.snoop_fanout::mean                    0                       # Request fanout histogram
system.membus.snoop_fanout::stdev                   0                       # Request fanout histogram
system.membus.snoop_fanout::underflows              0      0.00%      0.00% # Request fanout histogram
system.membus.snoop_fanout::0                   32343    100.00%    100.00% # Request fanout histogram
system.membus.snoop_fanout::1                       0      0.00%    100.00% # Request fanout histogram
system.membus.snoop_fanout::overflows               0      0.00%    100.00% # Request fanout histogram
system.membus.snoop_fanout::min_value               0                       # Request fanout histogram
system.membus.snoop_fanout::max_value               0                       # Request fanout histogram
system.membus.snoop_fanout::total               32343                       # Request fanout histogram
system.membus.snoop_filter.hit_multi_requests            0                       # Number of requests hitting in the snoop filter with multiple (>1) holders of the requested data.
system.membus.snoop_filter.hit_multi_snoops            0                       # Number of snoops hitting in the snoop filter with multiple (>1) holders of the requested data.
system.membus.snoop_filter.hit_single_requests         1274                       # Number of requests hitting in the snoop filter with a single holder of the requested data.
system.membus.snoop_filter.hit_single_snoops            0                       # Number of snoops hitting in the snoop filter with a single holder of the requested data.
system.membus.snoop_filter.tot_requests         33617                       # Total number of requests made to the snoop filter.
system.membus.snoop_filter.tot_snoops               0                       # Total number of snoops made to the snoop filter.
system.membus.snoops                                0                       # Total snoops (count)
system.membus.trans_dist::ReadResp              11088                       # Transaction distribution
system.membus.trans_dist::WritebackDirty          547                       # Transaction distribution
system.membus.trans_dist::CleanEvict              727                       # Transaction distribution
system.membus.trans_dist::ReadExReq             21255                       # Transaction distribution
system.membus.trans_dist::ReadExResp            21255                       # Transaction distribution
system.membus.trans_dist::ReadSharedReq         11088                       # Transaction distribution
system.pwrStateResidencyTicks::UNDEFINED 150374319500                       # Cumulative time (in ticks) in various power states
system.tol2bus.pkt_count_system.cpu.icache.mem_side::system.l2.cpu_side         4840                       # Packet count per connected master and slave (bytes)
system.tol2bus.pkt_count_system.cpu.dcache.mem_side::system.l2.cpu_side      2953328                       # Packet count per connected master and slave (bytes)
system.tol2bus.pkt_count::total               2958168                       # Packet count per connected master and slave (bytes)
system.tol2bus.pkt_size_system.cpu.icache.mem_side::system.l2.cpu_side       195584                       # Cumulative packet size per connected master and slave (bytes)
system.tol2bus.pkt_size_system.cpu.dcache.mem_side::system.l2.cpu_side    125817920                       # Cumulative packet size per connected master and slave (bytes)
system.tol2bus.pkt_size::total              126013504                       # Cumulative packet size per connected master and slave (bytes)
system.tol2bus.pwrStateResidencyTicks::UNDEFINED 150374319500                       # Cumulative time (in ticks) in various power states
system.tol2bus.reqLayer0.occupancy         1980040690                       # Layer occupancy (ticks)
system.tol2bus.reqLayer0.utilization              1.3                       # Layer utilization (%)
system.tol2bus.respLayer0.occupancy           2676000                       # Layer occupancy (ticks)
system.tol2bus.respLayer0.utilization             0.0                       # Layer utilization (%)
system.tol2bus.respLayer1.occupancy        1477176000                       # Layer occupancy (ticks)
system.tol2bus.respLayer1.utilization             1.0                       # Layer utilization (%)
system.tol2bus.snoopTraffic                     35008                       # Total snoop traffic (bytes)
system.tol2bus.snoop_fanout::samples           988085                       # Request fanout histogram
system.tol2bus.snoop_fanout::mean            0.000249                       # Request fanout histogram
system.tol2bus.snoop_fanout::stdev           0.015777                       # Request fanout histogram
system.tol2bus.snoop_fanout::underflows             0      0.00%      0.00% # Request fanout histogram
system.tol2bus.snoop_fanout::0                 987839     99.98%     99.98% # Request fanout histogram
system.tol2bus.snoop_fanout::1                    246      0.02%    100.00% # Request fanout histogram
system.tol2bus.snoop_fanout::2                      0      0.00%    100.00% # Request fanout histogram
system.tol2bus.snoop_fanout::3                      0      0.00%    100.00% # Request fanout histogram
system.tol2bus.snoop_fanout::4                      0      0.00%    100.00% # Request fanout histogram
system.tol2bus.snoop_fanout::overflows              0      0.00%    100.00% # Request fanout histogram
system.tol2bus.snoop_fanout::min_value              0                       # Request fanout histogram
system.tol2bus.snoop_fanout::max_value              1                       # Request fanout histogram
system.tol2bus.snoop_fanout::total             988085                       # Request fanout histogram
system.tol2bus.snoop_filter.hit_multi_requests            3                       # Number of requests hitting in the snoop filter with multiple (>1) holders of the requested data.
system.tol2bus.snoop_filter.hit_multi_snoops            0                       # Number of snoops hitting in the snoop filter with multiple (>1) holders of the requested data.
system.tol2bus.snoop_filter.hit_single_requests       985032                       # Number of requests hitting in the snoop filter with a single holder of the requested data.
system.tol2bus.snoop_filter.hit_single_snoops          243                       # Number of snoops hitting in the snoop filter with a single holder of the requested data.
system.tol2bus.snoop_filter.tot_requests      1971600                       # Total number of requests made to the snoop filter.
system.tol2bus.snoop_filter.tot_snoops            243                       # Total number of snoops made to the snoop filter.
system.tol2bus.snoops                            1517                       # Total snoops (count)
system.tol2bus.trans_dist::ReadResp            726859                       # Transaction distribution
system.tol2bus.trans_dist::WritebackDirty       981668                       # Transaction distribution
system.tol2bus.trans_dist::WritebackClean         1272                       # Transaction distribution
system.tol2bus.trans_dist::CleanEvict            3609                       # Transaction distribution
system.tol2bus.trans_dist::ReadExReq           259709                       # Transaction distribution
system.tol2bus.trans_dist::ReadExResp          259709                       # Transaction distribution
system.tol2bus.trans_dist::ReadCleanReq          1784                       # Transaction distribution
system.tol2bus.trans_dist::ReadSharedReq       725075                       # Transaction distribution
system.voltage_domain.voltage                       1                       # Voltage in Volts

---------- End Simulation Statistics   ----------
