
---------- Begin Simulation Statistics ----------
final_tick                                82084547500                       # Number of ticks from beginning of simulation (restored from checkpoints and never reset)
host_inst_rate                                 432326                       # Simulator instruction rate (inst/s)
host_mem_usage                                 674212                       # Number of bytes of host memory used
host_op_rate                                   810604                       # Simulator op (including micro ops) rate (op/s)
host_seconds                                    91.45                       # Real time elapsed on the host
host_tick_rate                              897556496                       # Simulator tick rate (ticks/s)
sim_freq                                 1000000000000                       # Frequency of simulated ticks
sim_insts                                    39537586                       # Number of instructions simulated
sim_ops                                      74132426                       # Number of ops (including micro ops) simulated
sim_seconds                                  0.082085                       # Number of seconds simulated
sim_ticks                                 82084547500                       # Number of ticks simulated
system.clk_domain.clock                          1000                       # Clock period in ticks
system.cpu.Branches                           8239501                       # Number of branches fetched
system.cpu.apic_clk_domain.clock                 8000                       # Clock period in ticks
system.cpu.committedInsts                    39537586                       # Number of instructions committed
system.cpu.committedOps                      74132426                       # Number of ops (including micro ops) committed
system.cpu.dcache.HardPFReq_avg_mshr_miss_latency::.cpu.dcache.prefetcher 12070.791174                       # average HardPFReq mshr miss latency
system.cpu.dcache.HardPFReq_avg_mshr_miss_latency::total 12070.791174                       # average HardPFReq mshr miss latency
system.cpu.dcache.HardPFReq_mshr_miss_latency::.cpu.dcache.prefetcher  13882954911                       # number of HardPFReq MSHR miss cycles
system.cpu.dcache.HardPFReq_mshr_miss_latency::total  13882954911                       # number of HardPFReq MSHR miss cycles
system.cpu.dcache.HardPFReq_mshr_miss_rate::.cpu.dcache.prefetcher          inf                       # mshr miss rate for HardPFReq accesses
system.cpu.dcache.HardPFReq_mshr_miss_rate::total          inf                       # mshr miss rate for HardPFReq accesses
system.cpu.dcache.HardPFReq_mshr_misses::.cpu.dcache.prefetcher      1150128                       # number of HardPFReq MSHR misses
system.cpu.dcache.HardPFReq_mshr_misses::total      1150128                       # number of HardPFReq MSHR misses
system.cpu.dcache.ReadReq_accesses::.cpu.data      8769734                       # number of ReadReq accesses(hits+misses)
system.cpu.dcache.ReadReq_accesses::total      8769734                       # number of ReadReq accesses(hits+misses)
system.cpu.dcache.ReadReq_avg_miss_latency::.cpu.data 13586.890185                       # average ReadReq miss latency
system.cpu.dcache.ReadReq_avg_miss_latency::total 13586.890185                       # average ReadReq miss latency
system.cpu.dcache.ReadReq_avg_mshr_miss_latency::.cpu.data 12601.009533                       # average ReadReq mshr miss latency
system.cpu.dcache.ReadReq_avg_mshr_miss_latency::total 12601.009533                       # average ReadReq mshr miss latency
system.cpu.dcache.ReadReq_hits::.cpu.data      7886884                       # number of ReadReq hits
system.cpu.dcache.ReadReq_hits::total         7886884                       # number of ReadReq hits
system.cpu.dcache.ReadReq_miss_latency::.cpu.data  11995186000                       # number of ReadReq miss cycles
system.cpu.dcache.ReadReq_miss_latency::total  11995186000                       # number of ReadReq miss cycles
system.cpu.dcache.ReadReq_miss_rate::.cpu.data     0.100670                       # miss rate for ReadReq accesses
system.cpu.dcache.ReadReq_miss_rate::total     0.100670                       # miss rate for ReadReq accesses
system.cpu.dcache.ReadReq_misses::.cpu.data       882850                       # number of ReadReq misses
system.cpu.dcache.ReadReq_misses::total        882850                       # number of ReadReq misses
system.cpu.dcache.ReadReq_mshr_hits::.cpu.data         2146                       # number of ReadReq MSHR hits
system.cpu.dcache.ReadReq_mshr_hits::total         2146                       # number of ReadReq MSHR hits
system.cpu.dcache.ReadReq_mshr_miss_latency::.cpu.data  11097759500                       # number of ReadReq MSHR miss cycles
system.cpu.dcache.ReadReq_mshr_miss_latency::total  11097759500                       # number of ReadReq MSHR miss cycles
system.cpu.dcache.ReadReq_mshr_miss_rate::.cpu.data     0.100425                       # mshr miss rate for ReadReq accesses
system.cpu.dcache.ReadReq_mshr_miss_rate::total     0.100425                       # mshr miss rate for ReadReq accesses
system.cpu.dcache.ReadReq_mshr_misses::.cpu.data       880704                       # number of ReadReq MSHR misses
system.cpu.dcache.ReadReq_mshr_misses::total       880704                       # number of ReadReq MSHR misses
system.cpu.dcache.WriteReq_accesses::.cpu.data      2722470                       # number of WriteReq accesses(hits+misses)
system.cpu.dcache.WriteReq_accesses::total      2722470                       # number of WriteReq accesses(hits+misses)
system.cpu.dcache.WriteReq_avg_miss_latency::.cpu.data 19794.700434                       # average WriteReq miss latency
system.cpu.dcache.WriteReq_avg_miss_latency::total 19794.700434                       # average WriteReq miss latency
system.cpu.dcache.WriteReq_avg_mshr_miss_latency::.cpu.data 17553.049555                       # average WriteReq mshr miss latency
system.cpu.dcache.WriteReq_avg_mshr_miss_latency::total 17553.049555                       # average WriteReq mshr miss latency
system.cpu.dcache.WriteReq_hits::.cpu.data      2713941                       # number of WriteReq hits
system.cpu.dcache.WriteReq_hits::total        2713941                       # number of WriteReq hits
system.cpu.dcache.WriteReq_miss_latency::.cpu.data    168829000                       # number of WriteReq miss cycles
system.cpu.dcache.WriteReq_miss_latency::total    168829000                       # number of WriteReq miss cycles
system.cpu.dcache.WriteReq_miss_rate::.cpu.data     0.003133                       # miss rate for WriteReq accesses
system.cpu.dcache.WriteReq_miss_rate::total     0.003133                       # miss rate for WriteReq accesses
system.cpu.dcache.WriteReq_misses::.cpu.data         8529                       # number of WriteReq misses
system.cpu.dcache.WriteReq_misses::total         8529                       # number of WriteReq misses
system.cpu.dcache.WriteReq_mshr_hits::.cpu.data          659                       # number of WriteReq MSHR hits
system.cpu.dcache.WriteReq_mshr_hits::total          659                       # number of WriteReq MSHR hits
system.cpu.dcache.WriteReq_mshr_miss_latency::.cpu.data    138142500                       # number of WriteReq MSHR miss cycles
system.cpu.dcache.WriteReq_mshr_miss_latency::total    138142500                       # number of WriteReq MSHR miss cycles
system.cpu.dcache.WriteReq_mshr_miss_rate::.cpu.data     0.002891                       # mshr miss rate for WriteReq accesses
system.cpu.dcache.WriteReq_mshr_miss_rate::total     0.002891                       # mshr miss rate for WriteReq accesses
system.cpu.dcache.WriteReq_mshr_misses::.cpu.data         7870                       # number of WriteReq MSHR misses
system.cpu.dcache.WriteReq_mshr_misses::total         7870                       # number of WriteReq MSHR misses
system.cpu.dcache.avg_blocked_cycles::no_mshrs          nan                       # average number of cycles each access was blocked
system.cpu.dcache.avg_blocked_cycles::no_targets          nan                       # average number of cycles each access was blocked
system.cpu.dcache.blocked::no_mshrs                 0                       # number of cycles access was blocked
system.cpu.dcache.blocked::no_targets               0                       # number of cycles access was blocked
system.cpu.dcache.blocked_cycles::no_mshrs            0                       # number of cycles access was blocked
system.cpu.dcache.blocked_cycles::no_targets            0                       # number of cycles access was blocked
system.cpu.dcache.demand_accesses::.cpu.data     11492204                       # number of demand (read+write) accesses
system.cpu.dcache.demand_accesses::total     11492204                       # number of demand (read+write) accesses
system.cpu.dcache.demand_avg_miss_latency::.cpu.data 13646.288504                       # average overall miss latency
system.cpu.dcache.demand_avg_miss_latency::total 13646.288504                       # average overall miss latency
system.cpu.dcache.demand_avg_mshr_miss_latency::.cpu.data 12644.869195                       # average overall mshr miss latency
system.cpu.dcache.demand_avg_mshr_miss_latency::total 12644.869195                       # average overall mshr miss latency
system.cpu.dcache.demand_hits::.cpu.data     10600825                       # number of demand (read+write) hits
system.cpu.dcache.demand_hits::total         10600825                       # number of demand (read+write) hits
system.cpu.dcache.demand_miss_latency::.cpu.data  12164015000                       # number of demand (read+write) miss cycles
system.cpu.dcache.demand_miss_latency::total  12164015000                       # number of demand (read+write) miss cycles
system.cpu.dcache.demand_miss_rate::.cpu.data     0.077564                       # miss rate for demand accesses
system.cpu.dcache.demand_miss_rate::total     0.077564                       # miss rate for demand accesses
system.cpu.dcache.demand_misses::.cpu.data       891379                       # number of demand (read+write) misses
system.cpu.dcache.demand_misses::total         891379                       # number of demand (read+write) misses
system.cpu.dcache.demand_mshr_hits::.cpu.data         2805                       # number of demand (read+write) MSHR hits
system.cpu.dcache.demand_mshr_hits::total         2805                       # number of demand (read+write) MSHR hits
system.cpu.dcache.demand_mshr_miss_latency::.cpu.data  11235902000                       # number of demand (read+write) MSHR miss cycles
system.cpu.dcache.demand_mshr_miss_latency::total  11235902000                       # number of demand (read+write) MSHR miss cycles
system.cpu.dcache.demand_mshr_miss_rate::.cpu.data     0.077320                       # mshr miss rate for demand accesses
system.cpu.dcache.demand_mshr_miss_rate::total     0.077320                       # mshr miss rate for demand accesses
system.cpu.dcache.demand_mshr_misses::.cpu.data       888574                       # number of demand (read+write) MSHR misses
system.cpu.dcache.demand_mshr_misses::total       888574                       # number of demand (read+write) MSHR misses
system.cpu.dcache.overall_accesses::.cpu.data     11492204                       # number of overall (read+write) accesses
system.cpu.dcache.overall_accesses::total     11492204                       # number of overall (read+write) accesses
system.cpu.dcache.overall_avg_miss_latency::.cpu.data 13646.288504                       # average overall miss latency
system.cpu.dcache.overall_avg_miss_latency::total 13646.288504                       # average overall miss latency
system.cpu.dcache.overall_avg_mshr_miss_latency::.cpu.data 12644.869195                       # average overall mshr miss latency
system.cpu.dcache.overall_avg_mshr_miss_latency::.cpu.dcache.prefetcher 12070.791174                       # average overall mshr miss latency
system.cpu.dcache.overall_avg_mshr_miss_latency::total 12321.004694                       # average overall mshr miss latency
system.cpu.dcache.overall_hits::.cpu.data     10600825                       # number of overall hits
system.cpu.dcache.overall_hits::total        10600825                       # number of overall hits
system.cpu.dcache.overall_miss_latency::.cpu.data  12164015000                       # number of overall miss cycles
system.cpu.dcache.overall_miss_latency::total  12164015000                       # number of overall miss cycles
system.cpu.dcache.overall_miss_rate::.cpu.data     0.077564                       # miss rate for overall accesses
system.cpu.dcache.overall_miss_rate::total     0.077564                       # miss rate for overall accesses
system.cpu.dcache.overall_misses::.cpu.data       891379                       # number of overall misses
system.cpu.dcache.overall_misses::total        891379                       # number of overall misses
system.cpu.dcache.overall_mshr_hits::.cpu.data         2805                       # number of overall MSHR hits
system.cpu.dcache.overall_mshr_hits::total         2805                       # number of overall MSHR hits
system.cpu.dcache.overall_mshr_miss_latency::.cpu.data  11235902000                       # number of overall MSHR miss cycles
system.cpu.dcache.overall_mshr_miss_latency::.cpu.dcache.prefetcher  13882954911                       # number of overall MSHR miss cycles
system.cpu.dcache.overall_mshr_miss_latency::total  25118856911                       # number of overall MSHR miss cycles
system.cpu.dcache.overall_mshr_miss_rate::.cpu.data     0.077320                       # mshr miss rate for overall accesses
system.cpu.dcache.overall_mshr_miss_rate::.cpu.dcache.prefetcher          inf                       # mshr miss rate for overall accesses
system.cpu.dcache.overall_mshr_miss_rate::total     0.177399                       # mshr miss rate for overall accesses
system.cpu.dcache.overall_mshr_misses::.cpu.data       888574                       # number of overall MSHR misses
system.cpu.dcache.overall_mshr_misses::.cpu.dcache.prefetcher      1150128                       # number of overall MSHR misses
system.cpu.dcache.overall_mshr_misses::total      2038702                       # number of overall MSHR misses
system.cpu.dcache.prefetcher.num_hwpf_issued      6674191                       # number of hwpf issued
system.cpu.dcache.prefetcher.pfBufferHit      2030550                       # number of redundant prefetches already in prefetch queue
system.cpu.dcache.prefetcher.pfIdentified      8711317                       # number of prefetch candidates identified
system.cpu.dcache.prefetcher.pfInCache              0                       # number of redundant prefetches already in cache/mshr dropped
system.cpu.dcache.prefetcher.pfRemovedFull           75                       # number of prefetches dropped due to prefetch queue size
system.cpu.dcache.prefetcher.pfSpanPage        312121                       # number of prefetches not generated due to page crossing
system.cpu.dcache.prefetcher.pwrStateResidencyTicks::UNDEFINED  82084547500                       # Cumulative time (in ticks) in various power states
system.cpu.dcache.pwrStateResidencyTicks::UNDEFINED  82084547500                       # Cumulative time (in ticks) in various power states
system.cpu.dcache.replacements                2037678                       # number of replacements
system.cpu.dcache.tags.age_task_id_blocks_1022::0           79                       # Occupied blocks per task id
system.cpu.dcache.tags.age_task_id_blocks_1022::1          133                       # Occupied blocks per task id
system.cpu.dcache.tags.age_task_id_blocks_1022::2          145                       # Occupied blocks per task id
system.cpu.dcache.tags.age_task_id_blocks_1022::3          515                       # Occupied blocks per task id
system.cpu.dcache.tags.age_task_id_blocks_1024::0           54                       # Occupied blocks per task id
system.cpu.dcache.tags.age_task_id_blocks_1024::1           67                       # Occupied blocks per task id
system.cpu.dcache.tags.age_task_id_blocks_1024::2            5                       # Occupied blocks per task id
system.cpu.dcache.tags.age_task_id_blocks_1024::3           26                       # Occupied blocks per task id
system.cpu.dcache.tags.avg_refs              6.199791                       # Average number of references to valid blocks.
system.cpu.dcache.tags.data_accesses         25023110                       # Number of data accesses
system.cpu.dcache.tags.occ_blocks::.cpu.data   382.119810                       # Average occupied blocks per requestor
system.cpu.dcache.tags.occ_blocks::.cpu.dcache.prefetcher   640.937426                       # Average occupied blocks per requestor
system.cpu.dcache.tags.occ_percent::.cpu.data     0.373164                       # Average percentage of cache occupancy
system.cpu.dcache.tags.occ_percent::.cpu.dcache.prefetcher     0.625915                       # Average percentage of cache occupancy
system.cpu.dcache.tags.occ_percent::total     0.999079                       # Average percentage of cache occupancy
system.cpu.dcache.tags.occ_task_id_blocks::1022          872                       # Occupied blocks per task id
system.cpu.dcache.tags.occ_task_id_blocks::1024          152                       # Occupied blocks per task id
system.cpu.dcache.tags.occ_task_id_percent::1022     0.851562                       # Percentage of cache occupancy per task id
system.cpu.dcache.tags.occ_task_id_percent::1024     0.148438                       # Percentage of cache occupancy per task id
system.cpu.dcache.tags.pwrStateResidencyTicks::UNDEFINED  82084547500                       # Cumulative time (in ticks) in various power states
system.cpu.dcache.tags.sampled_refs           2038702                       # Sample count of references to valid blocks.
system.cpu.dcache.tags.tag_accesses          25023110                       # Number of tag accesses
system.cpu.dcache.tags.tagsinuse          1023.057236                       # Cycle average of tags in use
system.cpu.dcache.tags.total_refs            12639527                       # Total number of references to valid blocks.
system.cpu.dcache.tags.warmup_cycle            174500                       # Cycle when the warmup percentage was hit.
system.cpu.dcache.unused_prefetches            674474                       # number of HardPF blocks evicted w/o reference
system.cpu.dcache.writebacks::.writebacks      1683083                       # number of writebacks
system.cpu.dcache.writebacks::total           1683083                       # number of writebacks
system.cpu.dtb.pwrStateResidencyTicks::UNDEFINED  82084547500                       # Cumulative time (in ticks) in various power states
system.cpu.dtb.rdAccesses                     8769734                       # TLB accesses on read requests
system.cpu.dtb.rdMisses                           236                       # TLB misses on read requests
system.cpu.dtb.walker.pwrStateResidencyTicks::UNDEFINED  82084547500                       # Cumulative time (in ticks) in various power states
system.cpu.dtb.wrAccesses                     2722470                       # TLB accesses on write requests
system.cpu.dtb.wrMisses                            98                       # TLB misses on write requests
system.cpu.dtb_walker_cache.avg_blocked_cycles::no_mshrs          nan                       # average number of cycles each access was blocked
system.cpu.dtb_walker_cache.avg_blocked_cycles::no_targets          nan                       # average number of cycles each access was blocked
system.cpu.dtb_walker_cache.blocked::no_mshrs            0                       # number of cycles access was blocked
system.cpu.dtb_walker_cache.blocked::no_targets            0                       # number of cycles access was blocked
system.cpu.dtb_walker_cache.blocked_cycles::no_mshrs            0                       # number of cycles access was blocked
system.cpu.dtb_walker_cache.blocked_cycles::no_targets            0                       # number of cycles access was blocked
system.cpu.dtb_walker_cache.pwrStateResidencyTicks::UNDEFINED  82084547500                       # Cumulative time (in ticks) in various power states
system.cpu.dtb_walker_cache.replacements            0                       # number of replacements
system.cpu.dtb_walker_cache.tags.avg_refs          nan                       # Average number of references to valid blocks.
system.cpu.dtb_walker_cache.tags.data_accesses            0                       # Number of data accesses
system.cpu.dtb_walker_cache.tags.pwrStateResidencyTicks::UNDEFINED  82084547500                       # Cumulative time (in ticks) in various power states
system.cpu.dtb_walker_cache.tags.sampled_refs            0                       # Sample count of references to valid blocks.
system.cpu.dtb_walker_cache.tags.tag_accesses            0                       # Number of tag accesses
system.cpu.dtb_walker_cache.tags.tagsinuse            0                       # Cycle average of tags in use
system.cpu.dtb_walker_cache.tags.total_refs            0                       # Total number of references to valid blocks.
system.cpu.dtb_walker_cache.tags.warmup_cycle            0                       # Cycle when the warmup percentage was hit.
system.cpu.icache.ReadReq_accesses::.cpu.inst     59230587                       # number of ReadReq accesses(hits+misses)
system.cpu.icache.ReadReq_accesses::total     59230587                       # number of ReadReq accesses(hits+misses)
system.cpu.icache.ReadReq_avg_miss_latency::.cpu.inst 89224.975223                       # average ReadReq miss latency
system.cpu.icache.ReadReq_avg_miss_latency::total 89224.975223                       # average ReadReq miss latency
system.cpu.icache.ReadReq_avg_mshr_miss_latency::.cpu.inst 88224.975223                       # average ReadReq mshr miss latency
system.cpu.icache.ReadReq_avg_mshr_miss_latency::total 88224.975223                       # average ReadReq mshr miss latency
system.cpu.icache.ReadReq_hits::.cpu.inst     59229578                       # number of ReadReq hits
system.cpu.icache.ReadReq_hits::total        59229578                       # number of ReadReq hits
system.cpu.icache.ReadReq_miss_latency::.cpu.inst     90028000                       # number of ReadReq miss cycles
system.cpu.icache.ReadReq_miss_latency::total     90028000                       # number of ReadReq miss cycles
system.cpu.icache.ReadReq_miss_rate::.cpu.inst     0.000017                       # miss rate for ReadReq accesses
system.cpu.icache.ReadReq_miss_rate::total     0.000017                       # miss rate for ReadReq accesses
system.cpu.icache.ReadReq_misses::.cpu.inst         1009                       # number of ReadReq misses
system.cpu.icache.ReadReq_misses::total          1009                       # number of ReadReq misses
system.cpu.icache.ReadReq_mshr_miss_latency::.cpu.inst     89019000                       # number of ReadReq MSHR miss cycles
system.cpu.icache.ReadReq_mshr_miss_latency::total     89019000                       # number of ReadReq MSHR miss cycles
system.cpu.icache.ReadReq_mshr_miss_rate::.cpu.inst     0.000017                       # mshr miss rate for ReadReq accesses
system.cpu.icache.ReadReq_mshr_miss_rate::total     0.000017                       # mshr miss rate for ReadReq accesses
system.cpu.icache.ReadReq_mshr_misses::.cpu.inst         1009                       # number of ReadReq MSHR misses
system.cpu.icache.ReadReq_mshr_misses::total         1009                       # number of ReadReq MSHR misses
system.cpu.icache.avg_blocked_cycles::no_mshrs          nan                       # average number of cycles each access was blocked
system.cpu.icache.avg_blocked_cycles::no_targets          nan                       # average number of cycles each access was blocked
system.cpu.icache.blocked::no_mshrs                 0                       # number of cycles access was blocked
system.cpu.icache.blocked::no_targets               0                       # number of cycles access was blocked
system.cpu.icache.blocked_cycles::no_mshrs            0                       # number of cycles access was blocked
system.cpu.icache.blocked_cycles::no_targets            0                       # number of cycles access was blocked
system.cpu.icache.demand_accesses::.cpu.inst     59230587                       # number of demand (read+write) accesses
system.cpu.icache.demand_accesses::total     59230587                       # number of demand (read+write) accesses
system.cpu.icache.demand_avg_miss_latency::.cpu.inst 89224.975223                       # average overall miss latency
system.cpu.icache.demand_avg_miss_latency::total 89224.975223                       # average overall miss latency
system.cpu.icache.demand_avg_mshr_miss_latency::.cpu.inst 88224.975223                       # average overall mshr miss latency
system.cpu.icache.demand_avg_mshr_miss_latency::total 88224.975223                       # average overall mshr miss latency
system.cpu.icache.demand_hits::.cpu.inst     59229578                       # number of demand (read+write) hits
system.cpu.icache.demand_hits::total         59229578                       # number of demand (read+write) hits
system.cpu.icache.demand_miss_latency::.cpu.inst     90028000                       # number of demand (read+write) miss cycles
system.cpu.icache.demand_miss_latency::total     90028000                       # number of demand (read+write) miss cycles
system.cpu.icache.demand_miss_rate::.cpu.inst     0.000017                       # miss rate for demand accesses
system.cpu.icache.demand_miss_rate::total     0.000017                       # miss rate for demand accesses
system.cpu.icache.demand_misses::.cpu.inst         1009                       # number of demand (read+write) misses
system.cpu.icache.demand_misses::total           1009                       # number of demand (read+write) misses
system.cpu.icache.demand_mshr_miss_latency::.cpu.inst     89019000                       # number of demand (read+write) MSHR miss cycles
system.cpu.icache.demand_mshr_miss_latency::total     89019000                       # number of demand (read+write) MSHR miss cycles
system.cpu.icache.demand_mshr_miss_rate::.cpu.inst     0.000017                       # mshr miss rate for demand accesses
system.cpu.icache.demand_mshr_miss_rate::total     0.000017                       # mshr miss rate for demand accesses
system.cpu.icache.demand_mshr_misses::.cpu.inst         1009                       # number of demand (read+write) MSHR misses
system.cpu.icache.demand_mshr_misses::total         1009                       # number of demand (read+write) MSHR misses
system.cpu.icache.overall_accesses::.cpu.inst     59230587                       # number of overall (read+write) accesses
system.cpu.icache.overall_accesses::total     59230587                       # number of overall (read+write) accesses
system.cpu.icache.overall_avg_miss_latency::.cpu.inst 89224.975223                       # average overall miss latency
system.cpu.icache.overall_avg_miss_latency::total 89224.975223                       # average overall miss latency
system.cpu.icache.overall_avg_mshr_miss_latency::.cpu.inst 88224.975223                       # average overall mshr miss latency
system.cpu.icache.overall_avg_mshr_miss_latency::total 88224.975223                       # average overall mshr miss latency
system.cpu.icache.overall_hits::.cpu.inst     59229578                       # number of overall hits
system.cpu.icache.overall_hits::total        59229578                       # number of overall hits
system.cpu.icache.overall_miss_latency::.cpu.inst     90028000                       # number of overall miss cycles
system.cpu.icache.overall_miss_latency::total     90028000                       # number of overall miss cycles
system.cpu.icache.overall_miss_rate::.cpu.inst     0.000017                       # miss rate for overall accesses
system.cpu.icache.overall_miss_rate::total     0.000017                       # miss rate for overall accesses
system.cpu.icache.overall_misses::.cpu.inst         1009                       # number of overall misses
system.cpu.icache.overall_misses::total          1009                       # number of overall misses
system.cpu.icache.overall_mshr_miss_latency::.cpu.inst     89019000                       # number of overall MSHR miss cycles
system.cpu.icache.overall_mshr_miss_latency::total     89019000                       # number of overall MSHR miss cycles
system.cpu.icache.overall_mshr_miss_rate::.cpu.inst     0.000017                       # mshr miss rate for overall accesses
system.cpu.icache.overall_mshr_miss_rate::total     0.000017                       # mshr miss rate for overall accesses
system.cpu.icache.overall_mshr_misses::.cpu.inst         1009                       # number of overall MSHR misses
system.cpu.icache.overall_mshr_misses::total         1009                       # number of overall MSHR misses
system.cpu.icache.pwrStateResidencyTicks::UNDEFINED  82084547500                       # Cumulative time (in ticks) in various power states
system.cpu.icache.replacements                    512                       # number of replacements
system.cpu.icache.tags.age_task_id_blocks_1024::0           52                       # Occupied blocks per task id
system.cpu.icache.tags.age_task_id_blocks_1024::1           29                       # Occupied blocks per task id
system.cpu.icache.tags.age_task_id_blocks_1024::3            2                       # Occupied blocks per task id
system.cpu.icache.tags.age_task_id_blocks_1024::4          414                       # Occupied blocks per task id
system.cpu.icache.tags.avg_refs          58702.266601                       # Average number of references to valid blocks.
system.cpu.icache.tags.data_accesses        118462183                       # Number of data accesses
system.cpu.icache.tags.occ_blocks::.cpu.inst   490.737216                       # Average occupied blocks per requestor
system.cpu.icache.tags.occ_percent::.cpu.inst     0.958471                       # Average percentage of cache occupancy
system.cpu.icache.tags.occ_percent::total     0.958471                       # Average percentage of cache occupancy
system.cpu.icache.tags.occ_task_id_blocks::1024          497                       # Occupied blocks per task id
system.cpu.icache.tags.occ_task_id_percent::1024     0.970703                       # Percentage of cache occupancy per task id
system.cpu.icache.tags.pwrStateResidencyTicks::UNDEFINED  82084547500                       # Cumulative time (in ticks) in various power states
system.cpu.icache.tags.sampled_refs              1009                       # Sample count of references to valid blocks.
system.cpu.icache.tags.tag_accesses         118462183                       # Number of tag accesses
system.cpu.icache.tags.tagsinuse           490.737216                       # Cycle average of tags in use
system.cpu.icache.tags.total_refs            59230587                       # Total number of references to valid blocks.
system.cpu.icache.tags.warmup_cycle             87500                       # Cycle when the warmup percentage was hit.
system.cpu.icache.writebacks::.writebacks          512                       # number of writebacks
system.cpu.icache.writebacks::total               512                       # number of writebacks
system.cpu.idle_fraction                     0.000000                       # Percentage of idle cycles
system.cpu.interrupts.pwrStateResidencyTicks::UNDEFINED  82084547500                       # Cumulative time (in ticks) in various power states
system.cpu.itb.pwrStateResidencyTicks::UNDEFINED  82084547500                       # Cumulative time (in ticks) in various power states
system.cpu.itb.rdAccesses                           0                       # TLB accesses on read requests
system.cpu.itb.rdMisses                             0                       # TLB misses on read requests
system.cpu.itb.walker.pwrStateResidencyTicks::UNDEFINED  82084547500                       # Cumulative time (in ticks) in various power states
system.cpu.itb.wrAccesses                    59230587                       # TLB accesses on write requests
system.cpu.itb.wrMisses                            85                       # TLB misses on write requests
system.cpu.itb_walker_cache.avg_blocked_cycles::no_mshrs          nan                       # average number of cycles each access was blocked
system.cpu.itb_walker_cache.avg_blocked_cycles::no_targets          nan                       # average number of cycles each access was blocked
system.cpu.itb_walker_cache.blocked::no_mshrs            0                       # number of cycles access was blocked
system.cpu.itb_walker_cache.blocked::no_targets            0                       # number of cycles access was blocked
system.cpu.itb_walker_cache.blocked_cycles::no_mshrs            0                       # number of cycles access was blocked
system.cpu.itb_walker_cache.blocked_cycles::no_targets            0                       # number of cycles access was blocked
system.cpu.itb_walker_cache.pwrStateResidencyTicks::UNDEFINED  82084547500                       # Cumulative time (in ticks) in various power states
system.cpu.itb_walker_cache.replacements            0                       # number of replacements
system.cpu.itb_walker_cache.tags.avg_refs          nan                       # Average number of references to valid blocks.
system.cpu.itb_walker_cache.tags.data_accesses            0                       # Number of data accesses
system.cpu.itb_walker_cache.tags.pwrStateResidencyTicks::UNDEFINED  82084547500                       # Cumulative time (in ticks) in various power states
system.cpu.itb_walker_cache.tags.sampled_refs            0                       # Sample count of references to valid blocks.
system.cpu.itb_walker_cache.tags.tag_accesses            0                       # Number of tag accesses
system.cpu.itb_walker_cache.tags.tagsinuse            0                       # Cycle average of tags in use
system.cpu.itb_walker_cache.tags.total_refs            0                       # Total number of references to valid blocks.
system.cpu.itb_walker_cache.tags.warmup_cycle            0                       # Cycle when the warmup percentage was hit.
system.cpu.not_idle_fraction                 1.000000                       # Percentage of non-idle cycles
system.cpu.numCycles                        164169095                       # number of cpu cycles simulated
system.cpu.numWorkItemsCompleted                    0                       # number of work items this cpu completed
system.cpu.numWorkItemsStarted                      0                       # number of work items this cpu started
system.cpu.num_busy_cycles               164169094.998000                       # Number of busy cycles
system.cpu.num_cc_register_reads             47473855                       # number of times the CC registers were read
system.cpu.num_cc_register_writes            26665422                       # number of times the CC registers were written
system.cpu.num_conditional_control_insts      7479516                       # number of instructions that are conditional controls
system.cpu.num_fp_alu_accesses                  56745                       # Number of float alu accesses
system.cpu.num_fp_insts                         56745                       # number of float instructions
system.cpu.num_fp_register_reads                38875                       # number of times the floating registers were read
system.cpu.num_fp_register_writes               25858                       # number of times the floating registers were written
system.cpu.num_func_calls                      448726                       # number of times a function call or return occured
system.cpu.num_idle_cycles                   0.002000                       # Number of idle cycles
system.cpu.num_int_alu_accesses              74127040                       # Number of integer alu accesses
system.cpu.num_int_insts                     74127040                       # number of integer instructions
system.cpu.num_int_register_reads           140864614                       # number of times the integer registers were read
system.cpu.num_int_register_writes           63148396                       # number of times the integer registers were written
system.cpu.num_load_insts                     8769727                       # Number of load instructions
system.cpu.num_mem_refs                      11492196                       # number of memory refs
system.cpu.num_store_insts                    2722469                       # Number of store instructions
system.cpu.num_vec_alu_accesses                     0                       # Number of vector alu accesses
system.cpu.num_vec_insts                            0                       # number of vector instructions
system.cpu.num_vec_register_reads                   0                       # number of times the vector registers were read
system.cpu.num_vec_register_writes                  0                       # number of times the vector registers were written
system.cpu.op_class::No_OpClass                  2134      0.00%      0.00% # Class of executed instruction
system.cpu.op_class::IntAlu                  62630537     84.48%     84.49% # Class of executed instruction
system.cpu.op_class::IntMult                     1641      0.00%     84.49% # Class of executed instruction
system.cpu.op_class::IntDiv                      1555      0.00%     84.49% # Class of executed instruction
system.cpu.op_class::FloatAdd                     238      0.00%     84.49% # Class of executed instruction
system.cpu.op_class::FloatCmp                       0      0.00%     84.49% # Class of executed instruction
system.cpu.op_class::FloatCvt                     400      0.00%     84.49% # Class of executed instruction
system.cpu.op_class::FloatMult                      0      0.00%     84.49% # Class of executed instruction
system.cpu.op_class::FloatMultAcc                   0      0.00%     84.49% # Class of executed instruction
system.cpu.op_class::FloatDiv                       0      0.00%     84.49% # Class of executed instruction
system.cpu.op_class::FloatMisc                      0      0.00%     84.49% # Class of executed instruction
system.cpu.op_class::FloatSqrt                      0      0.00%     84.49% # Class of executed instruction
system.cpu.op_class::SimdAdd                      552      0.00%     84.49% # Class of executed instruction
system.cpu.op_class::SimdAddAcc                     0      0.00%     84.49% # Class of executed instruction
system.cpu.op_class::SimdAlu                      795      0.00%     84.49% # Class of executed instruction
system.cpu.op_class::SimdCmp                        0      0.00%     84.49% # Class of executed instruction
system.cpu.op_class::SimdCvt                     1242      0.00%     84.50% # Class of executed instruction
system.cpu.op_class::SimdMisc                     813      0.00%     84.50% # Class of executed instruction
system.cpu.op_class::SimdMult                       0      0.00%     84.50% # Class of executed instruction
system.cpu.op_class::SimdMultAcc                    0      0.00%     84.50% # Class of executed instruction
system.cpu.op_class::SimdShift                    323      0.00%     84.50% # Class of executed instruction
system.cpu.op_class::SimdShiftAcc                   0      0.00%     84.50% # Class of executed instruction
system.cpu.op_class::SimdDiv                        0      0.00%     84.50% # Class of executed instruction
system.cpu.op_class::SimdSqrt                       0      0.00%     84.50% # Class of executed instruction
system.cpu.op_class::SimdFloatAdd                   0      0.00%     84.50% # Class of executed instruction
system.cpu.op_class::SimdFloatAlu                   0      0.00%     84.50% # Class of executed instruction
system.cpu.op_class::SimdFloatCmp                   0      0.00%     84.50% # Class of executed instruction
system.cpu.op_class::SimdFloatCvt                   0      0.00%     84.50% # Class of executed instruction
system.cpu.op_class::SimdFloatDiv                   0      0.00%     84.50% # Class of executed instruction
system.cpu.op_class::SimdFloatMisc                  0      0.00%     84.50% # Class of executed instruction
system.cpu.op_class::SimdFloatMult                  0      0.00%     84.50% # Class of executed instruction
system.cpu.op_class::SimdFloatMultAcc               0      0.00%     84.50% # Class of executed instruction
system.cpu.op_class::SimdFloatSqrt                  0      0.00%     84.50% # Class of executed instruction
system.cpu.op_class::SimdReduceAdd                  0      0.00%     84.50% # Class of executed instruction
system.cpu.op_class::SimdReduceAlu                  0      0.00%     84.50% # Class of executed instruction
system.cpu.op_class::SimdReduceCmp                  0      0.00%     84.50% # Class of executed instruction
system.cpu.op_class::SimdFloatReduceAdd             0      0.00%     84.50% # Class of executed instruction
system.cpu.op_class::SimdFloatReduceCmp             0      0.00%     84.50% # Class of executed instruction
system.cpu.op_class::SimdAes                        0      0.00%     84.50% # Class of executed instruction
system.cpu.op_class::SimdAesMix                     0      0.00%     84.50% # Class of executed instruction
system.cpu.op_class::SimdSha1Hash                   0      0.00%     84.50% # Class of executed instruction
system.cpu.op_class::SimdSha1Hash2                  0      0.00%     84.50% # Class of executed instruction
system.cpu.op_class::SimdSha256Hash                 0      0.00%     84.50% # Class of executed instruction
system.cpu.op_class::SimdSha256Hash2                0      0.00%     84.50% # Class of executed instruction
system.cpu.op_class::SimdShaSigma2                  0      0.00%     84.50% # Class of executed instruction
system.cpu.op_class::SimdShaSigma3                  0      0.00%     84.50% # Class of executed instruction
system.cpu.op_class::SimdPredAlu                    0      0.00%     84.50% # Class of executed instruction
system.cpu.op_class::MemRead                  8747213     11.80%     96.30% # Class of executed instruction
system.cpu.op_class::MemWrite                 2692669      3.63%     99.93% # Class of executed instruction
system.cpu.op_class::FloatMemRead               22514      0.03%     99.96% # Class of executed instruction
system.cpu.op_class::FloatMemWrite              29800      0.04%    100.00% # Class of executed instruction
system.cpu.op_class::IprAccess                      0      0.00%    100.00% # Class of executed instruction
system.cpu.op_class::InstPrefetch                   0      0.00%    100.00% # Class of executed instruction
system.cpu.op_class::total                   74132426                       # Class of executed instruction
system.cpu.pwrStateResidencyTicks::ON     82084547500                       # Cumulative time (in ticks) in various power states
system.cpu.workload.numSyscalls                    59                       # Number of system calls
system.cpu_clk_domain.clock                       500                       # Clock period in ticks
system.cpu_voltage_domain.voltage                   1                       # Voltage in Volts
system.l2.ReadCleanReq_accesses::.cpu.inst         1009                       # number of ReadCleanReq accesses(hits+misses)
system.l2.ReadCleanReq_accesses::total           1009                       # number of ReadCleanReq accesses(hits+misses)
system.l2.ReadCleanReq_avg_miss_latency::.cpu.inst 90604.166667                       # average ReadCleanReq miss latency
system.l2.ReadCleanReq_avg_miss_latency::total 90604.166667                       # average ReadCleanReq miss latency
system.l2.ReadCleanReq_avg_mshr_miss_latency::.cpu.inst 80604.166667                       # average ReadCleanReq mshr miss latency
system.l2.ReadCleanReq_avg_mshr_miss_latency::total 80604.166667                       # average ReadCleanReq mshr miss latency
system.l2.ReadCleanReq_hits::.cpu.inst             49                       # number of ReadCleanReq hits
system.l2.ReadCleanReq_hits::total                 49                       # number of ReadCleanReq hits
system.l2.ReadCleanReq_miss_latency::.cpu.inst     86980000                       # number of ReadCleanReq miss cycles
system.l2.ReadCleanReq_miss_latency::total     86980000                       # number of ReadCleanReq miss cycles
system.l2.ReadCleanReq_miss_rate::.cpu.inst     0.951437                       # miss rate for ReadCleanReq accesses
system.l2.ReadCleanReq_miss_rate::total      0.951437                       # miss rate for ReadCleanReq accesses
system.l2.ReadCleanReq_misses::.cpu.inst          960                       # number of ReadCleanReq misses
system.l2.ReadCleanReq_misses::total              960                       # number of ReadCleanReq misses
system.l2.ReadCleanReq_mshr_miss_latency::.cpu.inst     77380000                       # number of ReadCleanReq MSHR miss cycles
system.l2.ReadCleanReq_mshr_miss_latency::total     77380000                       # number of ReadCleanReq MSHR miss cycles
system.l2.ReadCleanReq_mshr_miss_rate::.cpu.inst     0.951437                       # mshr miss rate for ReadCleanReq accesses
system.l2.ReadCleanReq_mshr_miss_rate::total     0.951437                       # mshr miss rate for ReadCleanReq accesses
system.l2.ReadCleanReq_mshr_misses::.cpu.inst          960                       # number of ReadCleanReq MSHR misses
system.l2.ReadCleanReq_mshr_misses::total          960                       # number of ReadCleanReq MSHR misses
system.l2.ReadExReq_accesses::.cpu.data          7870                       # number of ReadExReq accesses(hits+misses)
system.l2.ReadExReq_accesses::total              7870                       # number of ReadExReq accesses(hits+misses)
system.l2.ReadExReq_avg_miss_latency::.cpu.data 163848.484848                       # average ReadExReq miss latency
system.l2.ReadExReq_avg_miss_latency::total 163848.484848                       # average ReadExReq miss latency
system.l2.ReadExReq_avg_mshr_miss_latency::.cpu.data 153848.484848                       # average ReadExReq mshr miss latency
system.l2.ReadExReq_avg_mshr_miss_latency::total 153848.484848                       # average ReadExReq mshr miss latency
system.l2.ReadExReq_hits::.cpu.data              7606                       # number of ReadExReq hits
system.l2.ReadExReq_hits::total                  7606                       # number of ReadExReq hits
system.l2.ReadExReq_miss_latency::.cpu.data     43256000                       # number of ReadExReq miss cycles
system.l2.ReadExReq_miss_latency::total      43256000                       # number of ReadExReq miss cycles
system.l2.ReadExReq_miss_rate::.cpu.data     0.033545                       # miss rate for ReadExReq accesses
system.l2.ReadExReq_miss_rate::total         0.033545                       # miss rate for ReadExReq accesses
system.l2.ReadExReq_misses::.cpu.data             264                       # number of ReadExReq misses
system.l2.ReadExReq_misses::total                 264                       # number of ReadExReq misses
system.l2.ReadExReq_mshr_miss_latency::.cpu.data     40616000                       # number of ReadExReq MSHR miss cycles
system.l2.ReadExReq_mshr_miss_latency::total     40616000                       # number of ReadExReq MSHR miss cycles
system.l2.ReadExReq_mshr_miss_rate::.cpu.data     0.033545                       # mshr miss rate for ReadExReq accesses
system.l2.ReadExReq_mshr_miss_rate::total     0.033545                       # mshr miss rate for ReadExReq accesses
system.l2.ReadExReq_mshr_misses::.cpu.data          264                       # number of ReadExReq MSHR misses
system.l2.ReadExReq_mshr_misses::total            264                       # number of ReadExReq MSHR misses
system.l2.ReadSharedReq_accesses::.cpu.data       880704                       # number of ReadSharedReq accesses(hits+misses)
system.l2.ReadSharedReq_accesses::.cpu.dcache.prefetcher      1150128                       # number of ReadSharedReq accesses(hits+misses)
system.l2.ReadSharedReq_accesses::total       2030832                       # number of ReadSharedReq accesses(hits+misses)
system.l2.ReadSharedReq_avg_miss_latency::.cpu.data 94502.150538                       # average ReadSharedReq miss latency
system.l2.ReadSharedReq_avg_miss_latency::.cpu.dcache.prefetcher 156214.810783                       # average ReadSharedReq miss latency
system.l2.ReadSharedReq_avg_miss_latency::total 151678.549794                       # average ReadSharedReq miss latency
system.l2.ReadSharedReq_avg_mshr_miss_latency::.cpu.data 84502.150538                       # average ReadSharedReq mshr miss latency
system.l2.ReadSharedReq_avg_mshr_miss_latency::.cpu.dcache.prefetcher 146214.810783                       # average ReadSharedReq mshr miss latency
system.l2.ReadSharedReq_avg_mshr_miss_latency::total 141678.549794                       # average ReadSharedReq mshr miss latency
system.l2.ReadSharedReq_hits::.cpu.data        880239                       # number of ReadSharedReq hits
system.l2.ReadSharedReq_hits::.cpu.dcache.prefetcher      1144267                       # number of ReadSharedReq hits
system.l2.ReadSharedReq_hits::total           2024506                       # number of ReadSharedReq hits
system.l2.ReadSharedReq_miss_latency::.cpu.data     43943500                       # number of ReadSharedReq miss cycles
system.l2.ReadSharedReq_miss_latency::.cpu.dcache.prefetcher    915575006                       # number of ReadSharedReq miss cycles
system.l2.ReadSharedReq_miss_latency::total    959518506                       # number of ReadSharedReq miss cycles
system.l2.ReadSharedReq_miss_rate::.cpu.data     0.000528                       # miss rate for ReadSharedReq accesses
system.l2.ReadSharedReq_miss_rate::.cpu.dcache.prefetcher     0.005096                       # miss rate for ReadSharedReq accesses
system.l2.ReadSharedReq_miss_rate::total     0.003115                       # miss rate for ReadSharedReq accesses
system.l2.ReadSharedReq_misses::.cpu.data          465                       # number of ReadSharedReq misses
system.l2.ReadSharedReq_misses::.cpu.dcache.prefetcher         5861                       # number of ReadSharedReq misses
system.l2.ReadSharedReq_misses::total            6326                       # number of ReadSharedReq misses
system.l2.ReadSharedReq_mshr_miss_latency::.cpu.data     39293500                       # number of ReadSharedReq MSHR miss cycles
system.l2.ReadSharedReq_mshr_miss_latency::.cpu.dcache.prefetcher    856965006                       # number of ReadSharedReq MSHR miss cycles
system.l2.ReadSharedReq_mshr_miss_latency::total    896258506                       # number of ReadSharedReq MSHR miss cycles
system.l2.ReadSharedReq_mshr_miss_rate::.cpu.data     0.000528                       # mshr miss rate for ReadSharedReq accesses
system.l2.ReadSharedReq_mshr_miss_rate::.cpu.dcache.prefetcher     0.005096                       # mshr miss rate for ReadSharedReq accesses
system.l2.ReadSharedReq_mshr_miss_rate::total     0.003115                       # mshr miss rate for ReadSharedReq accesses
system.l2.ReadSharedReq_mshr_misses::.cpu.data          465                       # number of ReadSharedReq MSHR misses
system.l2.ReadSharedReq_mshr_misses::.cpu.dcache.prefetcher         5861                       # number of ReadSharedReq MSHR misses
system.l2.ReadSharedReq_mshr_misses::total         6326                       # number of ReadSharedReq MSHR misses
system.l2.WritebackClean_accesses::.writebacks          511                       # number of WritebackClean accesses(hits+misses)
system.l2.WritebackClean_accesses::total          511                       # number of WritebackClean accesses(hits+misses)
system.l2.WritebackClean_hits::.writebacks          511                       # number of WritebackClean hits
system.l2.WritebackClean_hits::total              511                       # number of WritebackClean hits
system.l2.WritebackDirty_accesses::.writebacks      1683083                       # number of WritebackDirty accesses(hits+misses)
system.l2.WritebackDirty_accesses::total      1683083                       # number of WritebackDirty accesses(hits+misses)
system.l2.WritebackDirty_hits::.writebacks      1683083                       # number of WritebackDirty hits
system.l2.WritebackDirty_hits::total          1683083                       # number of WritebackDirty hits
system.l2.avg_blocked_cycles::no_mshrs            nan                       # average number of cycles each access was blocked
system.l2.avg_blocked_cycles::no_targets          nan                       # average number of cycles each access was blocked
system.l2.blocked::no_mshrs                         0                       # number of cycles access was blocked
system.l2.blocked::no_targets                       0                       # number of cycles access was blocked
system.l2.blocked_cycles::no_mshrs                  0                       # number of cycles access was blocked
system.l2.blocked_cycles::no_targets                0                       # number of cycles access was blocked
system.l2.demand_accesses::.cpu.inst             1009                       # number of demand (read+write) accesses
system.l2.demand_accesses::.cpu.data           888574                       # number of demand (read+write) accesses
system.l2.demand_accesses::.cpu.dcache.prefetcher      1150128                       # number of demand (read+write) accesses
system.l2.demand_accesses::total              2039711                       # number of demand (read+write) accesses
system.l2.demand_avg_miss_latency::.cpu.inst 90604.166667                       # average overall miss latency
system.l2.demand_avg_miss_latency::.cpu.data 119615.226337                       # average overall miss latency
system.l2.demand_avg_miss_latency::.cpu.dcache.prefetcher 156214.810783                       # average overall miss latency
system.l2.demand_avg_miss_latency::total 144338.345166                       # average overall miss latency
system.l2.demand_avg_mshr_miss_latency::.cpu.inst 80604.166667                       # average overall mshr miss latency
system.l2.demand_avg_mshr_miss_latency::.cpu.data 109615.226337                       # average overall mshr miss latency
system.l2.demand_avg_mshr_miss_latency::.cpu.dcache.prefetcher 146214.810783                       # average overall mshr miss latency
system.l2.demand_avg_mshr_miss_latency::total 134338.345166                       # average overall mshr miss latency
system.l2.demand_hits::.cpu.inst                   49                       # number of demand (read+write) hits
system.l2.demand_hits::.cpu.data               887845                       # number of demand (read+write) hits
system.l2.demand_hits::.cpu.dcache.prefetcher      1144267                       # number of demand (read+write) hits
system.l2.demand_hits::total                  2032161                       # number of demand (read+write) hits
system.l2.demand_miss_latency::.cpu.inst     86980000                       # number of demand (read+write) miss cycles
system.l2.demand_miss_latency::.cpu.data     87199500                       # number of demand (read+write) miss cycles
system.l2.demand_miss_latency::.cpu.dcache.prefetcher    915575006                       # number of demand (read+write) miss cycles
system.l2.demand_miss_latency::total       1089754506                       # number of demand (read+write) miss cycles
system.l2.demand_miss_rate::.cpu.inst        0.951437                       # miss rate for demand accesses
system.l2.demand_miss_rate::.cpu.data        0.000820                       # miss rate for demand accesses
system.l2.demand_miss_rate::.cpu.dcache.prefetcher     0.005096                       # miss rate for demand accesses
system.l2.demand_miss_rate::total            0.003702                       # miss rate for demand accesses
system.l2.demand_misses::.cpu.inst                960                       # number of demand (read+write) misses
system.l2.demand_misses::.cpu.data                729                       # number of demand (read+write) misses
system.l2.demand_misses::.cpu.dcache.prefetcher         5861                       # number of demand (read+write) misses
system.l2.demand_misses::total                   7550                       # number of demand (read+write) misses
system.l2.demand_mshr_miss_latency::.cpu.inst     77380000                       # number of demand (read+write) MSHR miss cycles
system.l2.demand_mshr_miss_latency::.cpu.data     79909500                       # number of demand (read+write) MSHR miss cycles
system.l2.demand_mshr_miss_latency::.cpu.dcache.prefetcher    856965006                       # number of demand (read+write) MSHR miss cycles
system.l2.demand_mshr_miss_latency::total   1014254506                       # number of demand (read+write) MSHR miss cycles
system.l2.demand_mshr_miss_rate::.cpu.inst     0.951437                       # mshr miss rate for demand accesses
system.l2.demand_mshr_miss_rate::.cpu.data     0.000820                       # mshr miss rate for demand accesses
system.l2.demand_mshr_miss_rate::.cpu.dcache.prefetcher     0.005096                       # mshr miss rate for demand accesses
system.l2.demand_mshr_miss_rate::total       0.003702                       # mshr miss rate for demand accesses
system.l2.demand_mshr_misses::.cpu.inst           960                       # number of demand (read+write) MSHR misses
system.l2.demand_mshr_misses::.cpu.data           729                       # number of demand (read+write) MSHR misses
system.l2.demand_mshr_misses::.cpu.dcache.prefetcher         5861                       # number of demand (read+write) MSHR misses
system.l2.demand_mshr_misses::total              7550                       # number of demand (read+write) MSHR misses
system.l2.overall_accesses::.cpu.inst            1009                       # number of overall (read+write) accesses
system.l2.overall_accesses::.cpu.data          888574                       # number of overall (read+write) accesses
system.l2.overall_accesses::.cpu.dcache.prefetcher      1150128                       # number of overall (read+write) accesses
system.l2.overall_accesses::total             2039711                       # number of overall (read+write) accesses
system.l2.overall_avg_miss_latency::.cpu.inst 90604.166667                       # average overall miss latency
system.l2.overall_avg_miss_latency::.cpu.data 119615.226337                       # average overall miss latency
system.l2.overall_avg_miss_latency::.cpu.dcache.prefetcher 156214.810783                       # average overall miss latency
system.l2.overall_avg_miss_latency::total 144338.345166                       # average overall miss latency
system.l2.overall_avg_mshr_miss_latency::.cpu.inst 80604.166667                       # average overall mshr miss latency
system.l2.overall_avg_mshr_miss_latency::.cpu.data 109615.226337                       # average overall mshr miss latency
system.l2.overall_avg_mshr_miss_latency::.cpu.dcache.prefetcher 146214.810783                       # average overall mshr miss latency
system.l2.overall_avg_mshr_miss_latency::total 134338.345166                       # average overall mshr miss latency
system.l2.overall_hits::.cpu.inst                  49                       # number of overall hits
system.l2.overall_hits::.cpu.data              887845                       # number of overall hits
system.l2.overall_hits::.cpu.dcache.prefetcher      1144267                       # number of overall hits
system.l2.overall_hits::total                 2032161                       # number of overall hits
system.l2.overall_miss_latency::.cpu.inst     86980000                       # number of overall miss cycles
system.l2.overall_miss_latency::.cpu.data     87199500                       # number of overall miss cycles
system.l2.overall_miss_latency::.cpu.dcache.prefetcher    915575006                       # number of overall miss cycles
system.l2.overall_miss_latency::total      1089754506                       # number of overall miss cycles
system.l2.overall_miss_rate::.cpu.inst       0.951437                       # miss rate for overall accesses
system.l2.overall_miss_rate::.cpu.data       0.000820                       # miss rate for overall accesses
system.l2.overall_miss_rate::.cpu.dcache.prefetcher     0.005096                       # miss rate for overall accesses
system.l2.overall_miss_rate::total           0.003702                       # miss rate for overall accesses
system.l2.overall_misses::.cpu.inst               960                       # number of overall misses
system.l2.overall_misses::.cpu.data               729                       # number of overall misses
system.l2.overall_misses::.cpu.dcache.prefetcher         5861                       # number of overall misses
system.l2.overall_misses::total                  7550                       # number of overall misses
system.l2.overall_mshr_miss_latency::.cpu.inst     77380000                       # number of overall MSHR miss cycles
system.l2.overall_mshr_miss_latency::.cpu.data     79909500                       # number of overall MSHR miss cycles
system.l2.overall_mshr_miss_latency::.cpu.dcache.prefetcher    856965006                       # number of overall MSHR miss cycles
system.l2.overall_mshr_miss_latency::total   1014254506                       # number of overall MSHR miss cycles
system.l2.overall_mshr_miss_rate::.cpu.inst     0.951437                       # mshr miss rate for overall accesses
system.l2.overall_mshr_miss_rate::.cpu.data     0.000820                       # mshr miss rate for overall accesses
system.l2.overall_mshr_miss_rate::.cpu.dcache.prefetcher     0.005096                       # mshr miss rate for overall accesses
system.l2.overall_mshr_miss_rate::total      0.003702                       # mshr miss rate for overall accesses
system.l2.overall_mshr_misses::.cpu.inst          960                       # number of overall MSHR misses
system.l2.overall_mshr_misses::.cpu.data          729                       # number of overall MSHR misses
system.l2.overall_mshr_misses::.cpu.dcache.prefetcher         5861                       # number of overall MSHR misses
system.l2.overall_mshr_misses::total             7550                       # number of overall MSHR misses
system.l2.pwrStateResidencyTicks::UNDEFINED  82084547500                       # Cumulative time (in ticks) in various power states
system.l2.replacements                              0                       # number of replacements
system.l2.tags.age_task_id_blocks_1022::0           10                       # Occupied blocks per task id
system.l2.tags.age_task_id_blocks_1022::1           35                       # Occupied blocks per task id
system.l2.tags.age_task_id_blocks_1022::3          131                       # Occupied blocks per task id
system.l2.tags.age_task_id_blocks_1022::4         5685                       # Occupied blocks per task id
system.l2.tags.age_task_id_blocks_1024::0           53                       # Occupied blocks per task id
system.l2.tags.age_task_id_blocks_1024::1           30                       # Occupied blocks per task id
system.l2.tags.age_task_id_blocks_1024::3            3                       # Occupied blocks per task id
system.l2.tags.age_task_id_blocks_1024::4         1603                       # Occupied blocks per task id
system.l2.tags.avg_refs                    540.118543                       # Average number of references to valid blocks.
system.l2.tags.data_accesses                 32630710                       # Number of data accesses
system.l2.tags.occ_blocks::.cpu.inst       868.949072                       # Average occupied blocks per requestor
system.l2.tags.occ_blocks::.cpu.data       692.854659                       # Average occupied blocks per requestor
system.l2.tags.occ_blocks::.cpu.dcache.prefetcher  5240.575630                       # Average occupied blocks per requestor
system.l2.tags.occ_percent::.cpu.inst        0.026518                       # Average percentage of cache occupancy
system.l2.tags.occ_percent::.cpu.data        0.021144                       # Average percentage of cache occupancy
system.l2.tags.occ_percent::.cpu.dcache.prefetcher     0.159930                       # Average percentage of cache occupancy
system.l2.tags.occ_percent::total            0.207592                       # Average percentage of cache occupancy
system.l2.tags.occ_task_id_blocks::1022          5861                       # Occupied blocks per task id
system.l2.tags.occ_task_id_blocks::1024          1689                       # Occupied blocks per task id
system.l2.tags.occ_task_id_percent::1022     0.178864                       # Percentage of cache occupancy per task id
system.l2.tags.occ_task_id_percent::1024     0.051544                       # Percentage of cache occupancy per task id
system.l2.tags.pwrStateResidencyTicks::UNDEFINED  82084547500                       # Cumulative time (in ticks) in various power states
system.l2.tags.sampled_refs                      7550                       # Sample count of references to valid blocks.
system.l2.tags.tag_accesses                  32630710                       # Number of tag accesses
system.l2.tags.tagsinuse                  6802.379361                       # Cycle average of tags in use
system.l2.tags.total_refs                     4077895                       # Total number of references to valid blocks.
system.l2.tags.warmup_cycle                     77000                       # Cycle when the warmup percentage was hit.
system.mem_ctrls.avgBusLat                    5000.00                       # Average bus latency per DRAM burst
system.mem_ctrls.avgGap                   10872114.90                       # Average gap between requests
system.mem_ctrls.avgMemAccLat                92725.84                       # Average memory access latency per DRAM burst
system.mem_ctrls.avgPriority_.cpu.inst::samples       960.00                       # Average QoS priority value for accepted requests
system.mem_ctrls.avgPriority_.cpu.data::samples       729.00                       # Average QoS priority value for accepted requests
system.mem_ctrls.avgPriority_.cpu.dcache.prefetcher::samples      5861.00                       # Average QoS priority value for accepted requests
system.mem_ctrls.avgQLat                     73975.84                       # Average queueing delay per DRAM burst
system.mem_ctrls.avgRdBW                         5.89                       # Average DRAM read bandwidth in MiByte/s
system.mem_ctrls.avgRdBWSys                      5.89                       # Average system read bandwidth in MiByte/s
system.mem_ctrls.avgRdQLen                       1.06                       # Average read queue length when enqueuing
system.mem_ctrls.avgWrBW                         0.00                       # Average achieved write bandwidth in MiByte/s
system.mem_ctrls.avgWrBWSys                      0.00                       # Average system write bandwidth in MiByte/s
system.mem_ctrls.avgWrQLen                       0.00                       # Average write queue length when enqueuing
system.mem_ctrls.busUtil                         0.05                       # Data bus utilization in percentage
system.mem_ctrls.busUtilRead                     0.05                       # Data bus utilization in percentage for reads
system.mem_ctrls.busUtilWrite                    0.00                       # Data bus utilization in percentage for writes
system.mem_ctrls.bw_inst_read::.cpu.inst       748497                       # Instruction read bandwidth from this memory (bytes/s)
system.mem_ctrls.bw_inst_read::total           748497                       # Instruction read bandwidth from this memory (bytes/s)
system.mem_ctrls.bw_read::.cpu.inst            748497                       # Total read bandwidth from this memory (bytes/s)
system.mem_ctrls.bw_read::.cpu.data            568390                       # Total read bandwidth from this memory (bytes/s)
system.mem_ctrls.bw_read::.cpu.dcache.prefetcher      4569727                       # Total read bandwidth from this memory (bytes/s)
system.mem_ctrls.bw_read::total               5886613                       # Total read bandwidth from this memory (bytes/s)
system.mem_ctrls.bw_total::.cpu.inst           748497                       # Total bandwidth to/from this memory (bytes/s)
system.mem_ctrls.bw_total::.cpu.data           568390                       # Total bandwidth to/from this memory (bytes/s)
system.mem_ctrls.bw_total::.cpu.dcache.prefetcher      4569727                       # Total bandwidth to/from this memory (bytes/s)
system.mem_ctrls.bw_total::total              5886613                       # Total bandwidth to/from this memory (bytes/s)
system.mem_ctrls.bytesPerActivate::samples         2674                       # Bytes accessed per row activation
system.mem_ctrls.bytesPerActivate::mean    180.104712                       # Bytes accessed per row activation
system.mem_ctrls.bytesPerActivate::gmean   110.978148                       # Bytes accessed per row activation
system.mem_ctrls.bytesPerActivate::stdev   240.598035                       # Bytes accessed per row activation
system.mem_ctrls.bytesPerActivate::0-127         1634     61.11%     61.11% # Bytes accessed per row activation
system.mem_ctrls.bytesPerActivate::128-255          562     21.02%     82.12% # Bytes accessed per row activation
system.mem_ctrls.bytesPerActivate::256-383          106      3.96%     86.09% # Bytes accessed per row activation
system.mem_ctrls.bytesPerActivate::384-511           71      2.66%     88.74% # Bytes accessed per row activation
system.mem_ctrls.bytesPerActivate::512-639          103      3.85%     92.60% # Bytes accessed per row activation
system.mem_ctrls.bytesPerActivate::640-767           46      1.72%     94.32% # Bytes accessed per row activation
system.mem_ctrls.bytesPerActivate::768-895           13      0.49%     94.80% # Bytes accessed per row activation
system.mem_ctrls.bytesPerActivate::896-1023           17      0.64%     95.44% # Bytes accessed per row activation
system.mem_ctrls.bytesPerActivate::1024-1151          122      4.56%    100.00% # Bytes accessed per row activation
system.mem_ctrls.bytesPerActivate::total         2674                       # Bytes accessed per row activation
system.mem_ctrls.bytesReadDRAM                 483200                       # Total number of bytes read from DRAM
system.mem_ctrls.bytesReadSys                  483200                       # Total read bytes from the system interface side
system.mem_ctrls.bytesReadWrQ                       0                       # Total number of bytes read from write queue
system.mem_ctrls.bytesWritten                       0                       # Total number of bytes written to DRAM
system.mem_ctrls.bytesWrittenSys                    0                       # Total written bytes from the system interface side
system.mem_ctrls.bytes_inst_read::.cpu.inst        61440                       # Number of instructions bytes read from this memory
system.mem_ctrls.bytes_inst_read::total         61440                       # Number of instructions bytes read from this memory
system.mem_ctrls.bytes_read::.cpu.inst          61440                       # Number of bytes read from this memory
system.mem_ctrls.bytes_read::.cpu.data          46656                       # Number of bytes read from this memory
system.mem_ctrls.bytes_read::.cpu.dcache.prefetcher       375104                       # Number of bytes read from this memory
system.mem_ctrls.bytes_read::total             483200                       # Number of bytes read from this memory
system.mem_ctrls.masterReadAccesses::.cpu.inst          960                       # Per-master read serviced memory accesses
system.mem_ctrls.masterReadAccesses::.cpu.data          729                       # Per-master read serviced memory accesses
system.mem_ctrls.masterReadAccesses::.cpu.dcache.prefetcher         5861                       # Per-master read serviced memory accesses
system.mem_ctrls.masterReadAvgLat::.cpu.inst     39762.23                       # Per-master read average memory access latency
system.mem_ctrls.masterReadAvgLat::.cpu.data     68025.69                       # Per-master read average memory access latency
system.mem_ctrls.masterReadAvgLat::.cpu.dcache.prefetcher    104473.23                       # Per-master read average memory access latency
system.mem_ctrls.masterReadBytes::.cpu.inst        61440                       # Per-master bytes read from memory
system.mem_ctrls.masterReadBytes::.cpu.data        46656                       # Per-master bytes read from memory
system.mem_ctrls.masterReadBytes::.cpu.dcache.prefetcher       375104                       # Per-master bytes read from memory
system.mem_ctrls.masterReadRate::.cpu.inst 748496.542543528136                       # Per-master bytes read from memory rate (Bytes/sec)
system.mem_ctrls.masterReadRate::.cpu.data 568389.561993991723                       # Per-master bytes read from memory rate (Bytes/sec)
system.mem_ctrls.masterReadRate::.cpu.dcache.prefetcher 4569727.329007935710                       # Per-master bytes read from memory rate (Bytes/sec)
system.mem_ctrls.masterReadTotalLat::.cpu.inst     38171744                       # Per-master read total memory access latency
system.mem_ctrls.masterReadTotalLat::.cpu.data     49590730                       # Per-master read total memory access latency
system.mem_ctrls.masterReadTotalLat::.cpu.dcache.prefetcher    612317591                       # Per-master read total memory access latency
system.mem_ctrls.mergedWrBursts                     0                       # Number of DRAM write bursts merged with an existing one
system.mem_ctrls.neitherReadNorWriteReqs            0                       # Number of requests that are neither read nor write
system.mem_ctrls.numRdRetry                         0                       # Number of times read queue was full causing retry
system.mem_ctrls.numReadWriteTurnArounds            0                       # Number of turnarounds from READ to WRITE
system.mem_ctrls.numStayReadState               17630                       # Number of times bus staying in READ state
system.mem_ctrls.numStayWriteState                  0                       # Number of times bus staying in WRITE state
system.mem_ctrls.numWrRetry                         0                       # Number of times write queue was full causing retry
system.mem_ctrls.numWriteReadTurnArounds            0                       # Number of turnarounds from WRITE to READ
system.mem_ctrls.num_reads::.cpu.inst             960                       # Number of read requests responded to by this memory
system.mem_ctrls.num_reads::.cpu.data             729                       # Number of read requests responded to by this memory
system.mem_ctrls.num_reads::.cpu.dcache.prefetcher         5861                       # Number of read requests responded to by this memory
system.mem_ctrls.num_reads::total                7550                       # Number of read requests responded to by this memory
system.mem_ctrls.pageHitRate                    64.54                       # Row buffer hit rate, read and write combined
system.mem_ctrls.peakBW                      12800.00                       # Theoretical peak bandwidth in MiByte/s
system.mem_ctrls.perBankRdBursts::0               464                       # Per bank write bursts
system.mem_ctrls.perBankRdBursts::1               497                       # Per bank write bursts
system.mem_ctrls.perBankRdBursts::2               580                       # Per bank write bursts
system.mem_ctrls.perBankRdBursts::3               497                       # Per bank write bursts
system.mem_ctrls.perBankRdBursts::4               476                       # Per bank write bursts
system.mem_ctrls.perBankRdBursts::5               344                       # Per bank write bursts
system.mem_ctrls.perBankRdBursts::6               405                       # Per bank write bursts
system.mem_ctrls.perBankRdBursts::7               461                       # Per bank write bursts
system.mem_ctrls.perBankRdBursts::8               568                       # Per bank write bursts
system.mem_ctrls.perBankRdBursts::9               585                       # Per bank write bursts
system.mem_ctrls.perBankRdBursts::10              512                       # Per bank write bursts
system.mem_ctrls.perBankRdBursts::11              464                       # Per bank write bursts
system.mem_ctrls.perBankRdBursts::12              476                       # Per bank write bursts
system.mem_ctrls.perBankRdBursts::13              444                       # Per bank write bursts
system.mem_ctrls.perBankRdBursts::14              411                       # Per bank write bursts
system.mem_ctrls.perBankRdBursts::15              366                       # Per bank write bursts
system.mem_ctrls.perBankWrBursts::0                 0                       # Per bank write bursts
system.mem_ctrls.perBankWrBursts::1                 0                       # Per bank write bursts
system.mem_ctrls.perBankWrBursts::2                 0                       # Per bank write bursts
system.mem_ctrls.perBankWrBursts::3                 0                       # Per bank write bursts
system.mem_ctrls.perBankWrBursts::4                 0                       # Per bank write bursts
system.mem_ctrls.perBankWrBursts::5                 0                       # Per bank write bursts
system.mem_ctrls.perBankWrBursts::6                 0                       # Per bank write bursts
system.mem_ctrls.perBankWrBursts::7                 0                       # Per bank write bursts
system.mem_ctrls.perBankWrBursts::8                 0                       # Per bank write bursts
system.mem_ctrls.perBankWrBursts::9                 0                       # Per bank write bursts
system.mem_ctrls.perBankWrBursts::10                0                       # Per bank write bursts
system.mem_ctrls.perBankWrBursts::11                0                       # Per bank write bursts
system.mem_ctrls.perBankWrBursts::12                0                       # Per bank write bursts
system.mem_ctrls.perBankWrBursts::13                0                       # Per bank write bursts
system.mem_ctrls.perBankWrBursts::14                0                       # Per bank write bursts
system.mem_ctrls.perBankWrBursts::15                0                       # Per bank write bursts
[...]
system.mem_ctrls.wrQLenPdf::24                      0                       # What write queue length does an incoming req see
system.mem_ctrls.wrQLenPdf::25                      0                       # What write queue length does an incoming req see
system.mem_ctrls.wrQLenPdf::26                      0                       # What write queue length does an incoming req see
system.mem_ctrls.wrQLenPdf::27                      0                       # What write queue length does an incoming req see
system.mem_ctrls.wrQLenPdf::28                      0                       # What write queue length does an incoming req see
system.mem_ctrls.wrQLenPdf::29                      0                       # What write queue length does an incoming req see
system.mem_ctrls.wrQLenPdf::30                      0                       # What write queue length does an incoming req see
system.mem_ctrls.wrQLenPdf::31                      0                       # What write queue length does an incoming req see
system.mem_ctrls.wrQLenPdf::32                      0                       # What write queue length does an incoming req see
system.mem_ctrls.wrQLenPdf::33                      0                       # What write queue length does an incoming req see
system.mem_ctrls.wrQLenPdf::34                      0                       # What write queue length does an incoming req see
system.mem_ctrls.wrQLenPdf::35                      0                       # What write queue length does an incoming req see
system.mem_ctrls.wrQLenPdf::36                      0                       # What write queue length does an incoming req see
system.mem_ctrls.wrQLenPdf::37                      0                       # What write queue length does an incoming req see
system.mem_ctrls.wrQLenPdf::38                      0                       # What write queue length does an incoming req see
system.mem_ctrls.wrQLenPdf::39                      0                       # What write queue length does an incoming req see
system.mem_ctrls.wrQLenPdf::40                      0                       # What write queue length does an incoming req see
system.mem_ctrls.wrQLenPdf::41                      0                       # What write queue length does an incoming req see
system.mem_ctrls.wrQLenPdf::42                      0                       # What write queue length does an incoming req see
system.mem_ctrls.wrQLenPdf::43                      0                       # What write queue length does an incoming req see
system.mem_ctrls.wrQLenPdf::44                      0                       # What write queue length does an incoming req see
system.mem_ctrls.wrQLenPdf::45                      0                       # What write queue length does an incoming req see
system.mem_ctrls.wrQLenPdf::46                      0                       # What write queue length does an incoming req see
system.mem_ctrls.wrQLenPdf::47                      0                       # What write queue length does an incoming req see
system.mem_ctrls.wrQLenPdf::48                      0                       # What write queue length does an incoming req see
system.mem_ctrls.wrQLenPdf::49                      0                       # What write queue length does an incoming req see
system.mem_ctrls.wrQLenPdf::50                      0                       # What write queue length does an incoming req see
system.mem_ctrls.wrQLenPdf::51                      0                       # What write queue length does an incoming req see
system.mem_ctrls.wrQLenPdf::52                      0                       # What write queue length does an incoming req see
system.mem_ctrls.wrQLenPdf::53                      0                       # What write queue length does an incoming req see
system.mem_ctrls.wrQLenPdf::54                      0                       # What write queue length does an incoming req see
system.mem_ctrls.wrQLenPdf::55                      0                       # What write queue length does an incoming req see
system.mem_ctrls.wrQLenPdf::56                      0                       # What write queue length does an incoming req see
system.mem_ctrls.wrQLenPdf::57                      0                       # What write queue length does an incoming req see
system.mem_ctrls.wrQLenPdf::58                      0                       # What write queue length does an incoming req see
system.mem_ctrls.wrQLenPdf::59                      0                       # What write queue length does an incoming req see
system.mem_ctrls.wrQLenPdf::60                      0                       # What write queue length does an incoming req see
system.mem_ctrls.wrQLenPdf::61                      0                       # What write queue length does an incoming req see
system.mem_ctrls.wrQLenPdf::62                      0                       # What write queue length does an incoming req see
system.mem_ctrls.wrQLenPdf::63                      0                       # What write queue length does an incoming req see
system.mem_ctrls.writeBursts                        0                       # Number of DRAM write bursts, including those merged in the write queue
system.mem_ctrls.writePktSize::0                    0                       # Write request sizes (log2)
system.mem_ctrls.writePktSize::1                    0                       # Write request sizes (log2)
system.mem_ctrls.writePktSize::2                    0                       # Write request sizes (log2)
system.mem_ctrls.writePktSize::3                    0                       # Write request sizes (log2)
system.mem_ctrls.writePktSize::4                    0                       # Write request sizes (log2)
system.mem_ctrls.writePktSize::5                    0                       # Write request sizes (log2)
system.mem_ctrls.writePktSize::6                    0                       # Write request sizes (log2)
system.mem_ctrls.writeReqs                          0                       # Number of write requests accepted
system.mem_ctrls.writeRowHitRate                  nan                       # Row buffer hit rate for writes
system.mem_ctrls.writeRowHits                       0                       # Number of row buffer hits during writes
system.mem_ctrls_0.actBackEnergy            113728680                       # Energy for active background per rank (pJ)
system.mem_ctrls_0.actEnergy                  5947620                       # Energy for activate commands per rank (pJ)
system.mem_ctrls_0.actPowerDownEnergy      1272577440                       # Energy for active power-down per rank (pJ)
system.mem_ctrls_0.averagePower            257.229341                       # Core power per rank (mW)
system.mem_ctrls_0.memoryStateTime::IDLE     42599000                       # Time in different power states
system.mem_ctrls_0.memoryStateTime::REF     160940000                       # Time in different power states
system.mem_ctrls_0.memoryStateTime::SREF  77221743750                       # Time in different power states
system.mem_ctrls_0.memoryStateTime::PRE_PDN   1764444816                       # Time in different power states
system.mem_ctrls_0.memoryStateTime::ACT     104101031                       # Time in different power states
system.mem_ctrls_0.memoryStateTime::ACT_PDN   2790718903                       # Time in different power states
system.mem_ctrls_0.preBackEnergy             22339200                       # Energy for precharge background per rank (pJ)
system.mem_ctrls_0.preEnergy                  3153645                       # Energy for precharge commands per rank (pJ)
system.mem_ctrls_0.prePowerDownEnergy       677549760                       # Energy for precharge power-down per rank (pJ)
system.mem_ctrls_0.readEnergy                26589360                       # Energy for read commands per rank (pJ)
system.mem_ctrls_0.refreshEnergy         380462160.000000                       # Energy for refresh commands per rank (pJ)
system.mem_ctrls_0.selfRefreshEnergy      18612196320                       # Energy for self refresh per rank (pJ)
system.mem_ctrls_0.totalEnergy            21114554025                       # Total energy per rank (pJ)
system.mem_ctrls_0.totalIdleTime          81776504719                       # Total Idle time Per DRAM Rank
system.mem_ctrls_0.writeEnergy                      0                       # Energy for write commands per rank (pJ)
system.mem_ctrls_1.actBackEnergy            269950290                       # Energy for active background per rank (pJ)
system.mem_ctrls_1.actEnergy                 13166160                       # Energy for activate commands per rank (pJ)
system.mem_ctrls_1.actPowerDownEnergy      3621078330                       # Energy for active power-down per rank (pJ)
system.mem_ctrls_1.averagePower            293.734900                       # Core power per rank (mW)
system.mem_ctrls_1.memoryStateTime::IDLE    177539500                       # Time in different power states
system.mem_ctrls_1.memoryStateTime::REF     507000000                       # Time in different power states
system.mem_ctrls_1.memoryStateTime::SREF  66731435500                       # Time in different power states
system.mem_ctrls_1.memoryStateTime::PRE_PDN   6597042320                       # Time in different power states
system.mem_ctrls_1.memoryStateTime::ACT     130588544                       # Time in different power states
system.mem_ctrls_1.memoryStateTime::ACT_PDN   7940941636                       # Time in different power states
system.mem_ctrls_1.preBackEnergy             85092960                       # Energy for precharge background per rank (pJ)
system.mem_ctrls_1.preEnergy                  6994185                       # Energy for precharge commands per rank (pJ)
system.mem_ctrls_1.prePowerDownEnergy      2533250880                       # Energy for precharge power-down per rank (pJ)
system.mem_ctrls_1.readEnergy                27317640                       # Energy for read commands per rank (pJ)
system.mem_ctrls_1.refreshEnergy         1198548000.000000                       # Energy for refresh commands per rank (pJ)
system.mem_ctrls_1.selfRefreshEnergy      16354992060                       # Energy for self refresh per rank (pJ)
system.mem_ctrls_1.totalEnergy            24111096375                       # Total energy per rank (pJ)
system.mem_ctrls_1.totalIdleTime          81269375706                       # Total Idle time Per DRAM Rank
system.mem_ctrls_1.writeEnergy                      0                       # Energy for write commands per rank (pJ)
system.membus.pkt_count_system.l2.mem_side::system.mem_ctrls.port        15100                       # Packet count per connected master and slave (bytes)
system.membus.pkt_count_system.l2.mem_side::total        15100                       # Packet count per connected master and slave (bytes)
system.membus.pkt_count::total                  15100                       # Packet count per connected master and slave (bytes)
system.membus.pkt_size_system.l2.mem_side::system.mem_ctrls.port       483200                       # Cumulative packet size per connected master and slave (bytes)
system.membus.pkt_size_system.l2.mem_side::total       483200                       # Cumulative packet size per connected master and slave (bytes)
system.membus.pkt_size::total                  483200                       # Cumulative packet size per connected master and slave (bytes)
system.membus.pwrStateResidencyTicks::UNDEFINED  82084547500                       # Cumulative time (in ticks) in various power states
system.membus.reqLayer2.occupancy             9125989                       # Layer occupancy (ticks)
system.membus.reqLayer2.utilization               0.0                       # Layer utilization (%)
system.membus.respLayer1.occupancy           39942775                       # Layer occupancy (ticks)
system.membus.respLayer1.utilization              0.0                       # Layer utilization (%)
system.membus.snoopTraffic                          0                       # Total snoop traffic (bytes)
system.membus.snoop_fanout::samples              7550                       # Request fanout histogram
system.membus.snoop_fanout::mean                    0                       # Request fanout histogram
system.membus.snoop_fanout::stdev                   0                       # Request fanout histogram
system.membus.snoop_fanout::underflows              0      0.00%      0.00% # Request fanout histogram
system.membus.snoop_fanout::0                    7550    100.00%    100.00% # Request fanout histogram
system.membus.snoop_fanout::1                       0      0.00%    100.00% # Request fanout histogram
system.membus.snoop_fanout::overflows               0      0.00%    100.00% # Request fanout histogram
system.membus.snoop_fanout::min_value               0                       # Request fanout histogram
system.membus.snoop_fanout::max_value               0                       # Request fanout histogram
system.membus.snoop_fanout::total                7550                       # Request fanout histogram
system.membus.snoop_filter.hit_multi_requests            0                       # Number of requests hitting in the snoop filter with multiple (>1) holders of the requested data.
system.membus.snoop_filter.hit_multi_snoops            0                       # Number of snoops hitting in the snoop filter with multiple (>1) holders of the requested data.
system.membus.snoop_filter.hit_single_requests            0                       # Number of requests hitting in the snoop filter with a single holder of the requested data.
system.membus.snoop_filter.hit_single_snoops            0                       # Number of snoops hitting in the snoop filter with a single holder of the requested data.
system.membus.snoop_filter.tot_requests          7550                       # Total number of requests made to the snoop filter.
system.membus.snoop_filter.tot_snoops               0                       # Total number of snoops made to the snoop filter.
system.membus.snoops                                0                       # Total snoops (count)
system.membus.trans_dist::ReadResp               7286                       # Transaction distribution
system.membus.trans_dist::ReadExReq               264                       # Transaction distribution
system.membus.trans_dist::ReadExResp              264                       # Transaction distribution
system.membus.trans_dist::ReadSharedReq          7286                       # Transaction distribution
system.pwrStateResidencyTicks::UNDEFINED  82084547500                       # Cumulative time (in ticks) in various power states
system.tol2bus.pkt_count_system.cpu.icache.mem_side::system.l2.cpu_side         2530                       # Packet count per connected master and slave (bytes)
system.tol2bus.pkt_count_system.cpu.dcache.mem_side::system.l2.cpu_side      6115082                       # Packet count per connected master and slave (bytes)
system.tol2bus.pkt_count::total               6117612                       # Packet count per connected master and slave (bytes)
system.tol2bus.pkt_size_system.cpu.icache.mem_side::system.l2.cpu_side        97344                       # Cumulative packet size per connected master and slave (bytes)
system.tol2bus.pkt_size_system.cpu.dcache.mem_side::system.l2.cpu_side    238194240                       # Cumulative packet size per connected master and slave (bytes)
system.tol2bus.pkt_size::total              238291584                       # Cumulative packet size per connected master and slave (bytes)
system.tol2bus.pwrStateResidencyTicks::UNDEFINED  82084547500                       # Cumulative time (in ticks) in various power states
system.tol2bus.reqLayer0.occupancy         3836401111                       # Layer occupancy (ticks)
system.tol2bus.reqLayer0.utilization              4.7                       # Layer utilization (%)
system.tol2bus.respLayer0.occupancy           1513500                       # Layer occupancy (ticks)
system.tol2bus.respLayer0.utilization             0.0                       # Layer utilization (%)
system.tol2bus.respLayer1.occupancy        3058053000                       # Layer occupancy (ticks)
system.tol2bus.respLayer1.utilization             3.7                       # Layer utilization (%)
system.tol2bus.snoopTraffic                         0                       # Total snoop traffic (bytes)
system.tol2bus.snoop_fanout::samples          2039711                       # Request fanout histogram
system.tol2bus.snoop_fanout::mean            0.000003                       # Request fanout histogram
system.tol2bus.snoop_fanout::stdev           0.001715                       # Request fanout histogram
system.tol2bus.snoop_fanout::underflows             0      0.00%      0.00% # Request fanout histogram
system.tol2bus.snoop_fanout::0                2039705    100.00%    100.00% # Request fanout histogram
system.tol2bus.snoop_fanout::1                      6      0.00%    100.00% # Request fanout histogram
system.tol2bus.snoop_fanout::2                      0      0.00%    100.00% # Request fanout histogram
system.tol2bus.snoop_fanout::3                      0      0.00%    100.00% # Request fanout histogram
system.tol2bus.snoop_fanout::4                      0      0.00%    100.00% # Request fanout histogram
system.tol2bus.snoop_fanout::overflows              0      0.00%    100.00% # Request fanout histogram
system.tol2bus.snoop_fanout::min_value              0                       # Request fanout histogram
system.tol2bus.snoop_fanout::max_value              1                       # Request fanout histogram
system.tol2bus.snoop_fanout::total            2039711                       # Request fanout histogram
system.tol2bus.snoop_filter.hit_multi_requests            6                       # Number of requests hitting in the snoop filter with multiple (>1) holders of the requested data.
system.tol2bus.snoop_filter.hit_multi_snoops            0                       # Number of snoops hitting in the snoop filter with multiple (>1) holders of the requested data.
system.tol2bus.snoop_filter.hit_single_requests      2038190                       # Number of requests hitting in the snoop filter with a single holder of the requested data.
system.tol2bus.snoop_filter.hit_single_snoops            0                       # Number of snoops hitting in the snoop filter with a single holder of the requested data.
system.tol2bus.snoop_filter.tot_requests      4077901                       # Total number of requests made to the snoop filter.
system.tol2bus.snoop_filter.tot_snoops              0                       # Total number of snoops made to the snoop filter.
system.tol2bus.snoops                               0                       # Total snoops (count)
system.tol2bus.trans_dist::ReadResp           2031841                       # Transaction distribution
system.tol2bus.trans_dist::WritebackDirty      1683083                       # Transaction distribution
system.tol2bus.trans_dist::WritebackClean          512                       # Transaction distribution
system.tol2bus.trans_dist::CleanEvict          354595                       # Transaction distribution
system.tol2bus.trans_dist::ReadExReq             7870                       # Transaction distribution
system.tol2bus.trans_dist::ReadExResp            7870                       # Transaction distribution
system.tol2bus.trans_dist::ReadCleanReq          1009                       # Transaction distribution
system.tol2bus.trans_dist::ReadSharedReq      2030832                       # Transaction distribution
system.voltage_domain.voltage                       1                       # Voltage in Volts

---------- End Simulation Statistics   ----------
