
---------- Begin Simulation Statistics ----------
final_tick                               200002640500                       # Number of ticks from beginning of simulation (restored from checkpoints and never reset)
host_inst_rate                                 653111                       # Simulator instruction rate (inst/s)
host_mem_usage                                 730144                       # Number of bytes of host memory used
host_op_rate                                  1108825                       # Simulator op (including micro ops) rate (op/s)
host_seconds                                   169.31                       # Real time elapsed on the host
host_tick_rate                             1181267041                       # Simulator tick rate (ticks/s)
sim_freq                                 1000000000000                       # Frequency of simulated ticks
sim_insts                                   110579396                       # Number of instructions simulated
sim_ops                                     187737269                       # Number of ops (including micro ops) simulated
sim_seconds                                  0.200003                       # Number of seconds simulated
sim_ticks                                200002640500                       # Number of ticks simulated
system.clk_domain.clock                          1000                       # Clock period in ticks
system.cpu.Branches                           7776591                       # Number of branches fetched
system.cpu.apic_clk_domain.clock                 8000                       # Clock period in ticks
system.cpu.committedInsts                   110579396                       # Number of instructions committed
system.cpu.committedOps                     187737269                       # Number of ops (including micro ops) committed
system.cpu.dcache.HardPFReq_avg_mshr_miss_latency::.cpu.dcache.prefetcher 19300.365424                       # average HardPFReq mshr miss latency
system.cpu.dcache.HardPFReq_avg_mshr_miss_latency::total 19300.365424                       # average HardPFReq mshr miss latency
system.cpu.dcache.HardPFReq_mshr_miss_latency::.cpu.dcache.prefetcher   1037684147                       # number of HardPFReq MSHR miss cycles
system.cpu.dcache.HardPFReq_mshr_miss_latency::total   1037684147                       # number of HardPFReq MSHR miss cycles
system.cpu.dcache.HardPFReq_mshr_miss_rate::.cpu.dcache.prefetcher          inf                       # mshr miss rate for HardPFReq accesses
system.cpu.dcache.HardPFReq_mshr_miss_rate::total          inf                       # mshr miss rate for HardPFReq accesses
system.cpu.dcache.HardPFReq_mshr_misses::.cpu.dcache.prefetcher        53765                       # number of HardPFReq MSHR misses
system.cpu.dcache.HardPFReq_mshr_misses::total        53765                       # number of HardPFReq MSHR misses
system.cpu.dcache.ReadReq_accesses::.cpu.data     27137505                       # number of ReadReq accesses(hits+misses)
system.cpu.dcache.ReadReq_accesses::total     27137505                       # number of ReadReq accesses(hits+misses)
system.cpu.dcache.ReadReq_avg_miss_latency::.cpu.data 19258.727353                       # average ReadReq miss latency
system.cpu.dcache.ReadReq_avg_miss_latency::total 19258.727353                       # average ReadReq miss latency
system.cpu.dcache.ReadReq_avg_mshr_miss_latency::.cpu.data 18235.439324                       # average ReadReq mshr miss latency
system.cpu.dcache.ReadReq_avg_mshr_miss_latency::total 18235.439324                       # average ReadReq mshr miss latency
system.cpu.dcache.ReadReq_hits::.cpu.data     27094508                       # number of ReadReq hits
system.cpu.dcache.ReadReq_hits::total        27094508                       # number of ReadReq hits
system.cpu.dcache.ReadReq_miss_latency::.cpu.data    828067500                       # number of ReadReq miss cycles
system.cpu.dcache.ReadReq_miss_latency::total    828067500                       # number of ReadReq miss cycles
system.cpu.dcache.ReadReq_miss_rate::.cpu.data     0.001584                       # miss rate for ReadReq accesses
system.cpu.dcache.ReadReq_miss_rate::total     0.001584                       # miss rate for ReadReq accesses
system.cpu.dcache.ReadReq_misses::.cpu.data        42997                       # number of ReadReq misses
system.cpu.dcache.ReadReq_misses::total         42997                       # number of ReadReq misses
system.cpu.dcache.ReadReq_mshr_hits::.cpu.data           56                       # number of ReadReq MSHR hits
system.cpu.dcache.ReadReq_mshr_hits::total           56                       # number of ReadReq MSHR hits
system.cpu.dcache.ReadReq_mshr_miss_latency::.cpu.data    783048000                       # number of ReadReq MSHR miss cycles
system.cpu.dcache.ReadReq_mshr_miss_latency::total    783048000                       # number of ReadReq MSHR miss cycles
system.cpu.dcache.ReadReq_mshr_miss_rate::.cpu.data     0.001582                       # mshr miss rate for ReadReq accesses
system.cpu.dcache.ReadReq_mshr_miss_rate::total     0.001582                       # mshr miss rate for ReadReq accesses
system.cpu.dcache.ReadReq_mshr_misses::.cpu.data        42941                       # number of ReadReq MSHR misses
system.cpu.dcache.ReadReq_mshr_misses::total        42941                       # number of ReadReq MSHR misses
system.cpu.dcache.WriteReq_accesses::.cpu.data      9597240                       # number of WriteReq accesses(hits+misses)
system.cpu.dcache.WriteReq_accesses::total      9597240                       # number of WriteReq accesses(hits+misses)
system.cpu.dcache.WriteReq_avg_miss_latency::.cpu.data 45187.665522                       # average WriteReq miss latency
system.cpu.dcache.WriteReq_avg_miss_latency::total 45187.665522                       # average WriteReq miss latency
system.cpu.dcache.WriteReq_avg_mshr_miss_latency::.cpu.data 44200.661623                       # average WriteReq mshr miss latency
system.cpu.dcache.WriteReq_avg_mshr_miss_latency::total 44200.661623                       # average WriteReq mshr miss latency
system.cpu.dcache.WriteReq_hits::.cpu.data      9559103                       # number of WriteReq hits
system.cpu.dcache.WriteReq_hits::total        9559103                       # number of WriteReq hits
system.cpu.dcache.WriteReq_miss_latency::.cpu.data   1723322000                       # number of WriteReq miss cycles
system.cpu.dcache.WriteReq_miss_latency::total   1723322000                       # number of WriteReq miss cycles
system.cpu.dcache.WriteReq_miss_rate::.cpu.data     0.003974                       # miss rate for WriteReq accesses
system.cpu.dcache.WriteReq_miss_rate::total     0.003974                       # miss rate for WriteReq accesses
system.cpu.dcache.WriteReq_misses::.cpu.data        38137                       # number of WriteReq misses
system.cpu.dcache.WriteReq_misses::total        38137                       # number of WriteReq misses
system.cpu.dcache.WriteReq_mshr_hits::.cpu.data          200                       # number of WriteReq MSHR hits
system.cpu.dcache.WriteReq_mshr_hits::total          200                       # number of WriteReq MSHR hits
system.cpu.dcache.WriteReq_mshr_miss_latency::.cpu.data   1676840500                       # number of WriteReq MSHR miss cycles
system.cpu.dcache.WriteReq_mshr_miss_latency::total   1676840500                       # number of WriteReq MSHR miss cycles
system.cpu.dcache.WriteReq_mshr_miss_rate::.cpu.data     0.003953                       # mshr miss rate for WriteReq accesses
system.cpu.dcache.WriteReq_mshr_miss_rate::total     0.003953                       # mshr miss rate for WriteReq accesses
system.cpu.dcache.WriteReq_mshr_misses::.cpu.data        37937                       # number of WriteReq MSHR misses
system.cpu.dcache.WriteReq_mshr_misses::total        37937                       # number of WriteReq MSHR misses
system.cpu.dcache.avg_blocked_cycles::no_mshrs          nan                       # average number of cycles each access was blocked
system.cpu.dcache.avg_blocked_cycles::no_targets          nan                       # average number of cycles each access was blocked
system.cpu.dcache.blocked::no_mshrs                 0                       # number of cycles access was blocked
system.cpu.dcache.blocked::no_targets               0                       # number of cycles access was blocked
system.cpu.dcache.blocked_cycles::no_mshrs            0                       # number of cycles access was blocked
system.cpu.dcache.blocked_cycles::no_targets            0                       # number of cycles access was blocked
system.cpu.dcache.demand_accesses::.cpu.data     36734745                       # number of demand (read+write) accesses
system.cpu.dcache.demand_accesses::total     36734745                       # number of demand (read+write) accesses
system.cpu.dcache.demand_avg_miss_latency::.cpu.data 31446.613011                       # average overall miss latency
system.cpu.dcache.demand_avg_miss_latency::total 31446.613011                       # average overall miss latency
system.cpu.dcache.demand_avg_mshr_miss_latency::.cpu.data 30414.803779                       # average overall mshr miss latency
system.cpu.dcache.demand_avg_mshr_miss_latency::total 30414.803779                       # average overall mshr miss latency
system.cpu.dcache.demand_hits::.cpu.data     36653611                       # number of demand (read+write) hits
system.cpu.dcache.demand_hits::total         36653611                       # number of demand (read+write) hits
system.cpu.dcache.demand_miss_latency::.cpu.data   2551389500                       # number of demand (read+write) miss cycles
system.cpu.dcache.demand_miss_latency::total   2551389500                       # number of demand (read+write) miss cycles
system.cpu.dcache.demand_miss_rate::.cpu.data     0.002209                       # miss rate for demand accesses
system.cpu.dcache.demand_miss_rate::total     0.002209                       # miss rate for demand accesses
system.cpu.dcache.demand_misses::.cpu.data        81134                       # number of demand (read+write) misses
system.cpu.dcache.demand_misses::total          81134                       # number of demand (read+write) misses
system.cpu.dcache.demand_mshr_hits::.cpu.data          256                       # number of demand (read+write) MSHR hits
system.cpu.dcache.demand_mshr_hits::total          256                       # number of demand (read+write) MSHR hits
system.cpu.dcache.demand_mshr_miss_latency::.cpu.data   2459888500                       # number of demand (read+write) MSHR miss cycles
system.cpu.dcache.demand_mshr_miss_latency::total   2459888500                       # number of demand (read+write) MSHR miss cycles
system.cpu.dcache.demand_mshr_miss_rate::.cpu.data     0.002202                       # mshr miss rate for demand accesses
system.cpu.dcache.demand_mshr_miss_rate::total     0.002202                       # mshr miss rate for demand accesses
system.cpu.dcache.demand_mshr_misses::.cpu.data        80878                       # number of demand (read+write) MSHR misses
system.cpu.dcache.demand_mshr_misses::total        80878                       # number of demand (read+write) MSHR misses
system.cpu.dcache.overall_accesses::.cpu.data     36734745                       # number of overall (read+write) accesses
system.cpu.dcache.overall_accesses::total     36734745                       # number of overall (read+write) accesses
system.cpu.dcache.overall_avg_miss_latency::.cpu.data 31446.613011                       # average overall miss latency
system.cpu.dcache.overall_avg_miss_latency::total 31446.613011                       # average overall miss latency
system.cpu.dcache.overall_avg_mshr_miss_latency::.cpu.data 30414.803779                       # average overall mshr miss latency
system.cpu.dcache.overall_avg_mshr_miss_latency::.cpu.dcache.prefetcher 19300.365424                       # average overall mshr miss latency
system.cpu.dcache.overall_avg_mshr_miss_latency::total 25976.639313                       # average overall mshr miss latency
system.cpu.dcache.overall_hits::.cpu.data     36653611                       # number of overall hits
system.cpu.dcache.overall_hits::total        36653611                       # number of overall hits
system.cpu.dcache.overall_miss_latency::.cpu.data   2551389500                       # number of overall miss cycles
system.cpu.dcache.overall_miss_latency::total   2551389500                       # number of overall miss cycles
system.cpu.dcache.overall_miss_rate::.cpu.data     0.002209                       # miss rate for overall accesses
system.cpu.dcache.overall_miss_rate::total     0.002209                       # miss rate for overall accesses
system.cpu.dcache.overall_misses::.cpu.data        81134                       # number of overall misses
system.cpu.dcache.overall_misses::total         81134                       # number of overall misses
system.cpu.dcache.overall_mshr_hits::.cpu.data          256                       # number of overall MSHR hits
system.cpu.dcache.overall_mshr_hits::total          256                       # number of overall MSHR hits
system.cpu.dcache.overall_mshr_miss_latency::.cpu.data   2459888500                       # number of overall MSHR miss cycles
system.cpu.dcache.overall_mshr_miss_latency::.cpu.dcache.prefetcher   1037684147                       # number of overall MSHR miss cycles
system.cpu.dcache.overall_mshr_miss_latency::total   3497572647                       # number of overall MSHR miss cycles
system.cpu.dcache.overall_mshr_miss_rate::.cpu.data     0.002202                       # mshr miss rate for overall accesses
system.cpu.dcache.overall_mshr_miss_rate::.cpu.dcache.prefetcher          inf                       # mshr miss rate for overall accesses
system.cpu.dcache.overall_mshr_miss_rate::total     0.003665                       # mshr miss rate for overall accesses
system.cpu.dcache.overall_mshr_misses::.cpu.data        80878                       # number of overall MSHR misses
system.cpu.dcache.overall_mshr_misses::.cpu.dcache.prefetcher        53765                       # number of overall MSHR misses
system.cpu.dcache.overall_mshr_misses::total       134643                       # number of overall MSHR misses
system.cpu.dcache.prefetcher.num_hwpf_issued     49162655                       # number of hwpf issued
system.cpu.dcache.prefetcher.pfBufferHit       156642                       # number of redundant prefetches already in prefetch queue
system.cpu.dcache.prefetcher.pfIdentified     49354884                       # number of prefetch candidates identified
system.cpu.dcache.prefetcher.pfInCache              0                       # number of redundant prefetches already in cache/mshr dropped
system.cpu.dcache.prefetcher.pfRemovedFull            8                       # number of prefetches dropped due to prefetch queue size
system.cpu.dcache.prefetcher.pfSpanPage       1762252                       # number of prefetches not generated due to page crossing
system.cpu.dcache.prefetcher.pwrStateResidencyTicks::UNDEFINED 200002640500                       # Cumulative time (in ticks) in various power states
system.cpu.dcache.pwrStateResidencyTicks::UNDEFINED 200002640500                       # Cumulative time (in ticks) in various power states
system.cpu.dcache.replacements                 133619                       # number of replacements
system.cpu.dcache.tags.age_task_id_blocks_1022::0           16                       # Occupied blocks per task id
system.cpu.dcache.tags.age_task_id_blocks_1022::1          133                       # Occupied blocks per task id
system.cpu.dcache.tags.age_task_id_blocks_1022::2            8                       # Occupied blocks per task id
system.cpu.dcache.tags.age_task_id_blocks_1024::0           54                       # Occupied blocks per task id
system.cpu.dcache.tags.age_task_id_blocks_1024::1          196                       # Occupied blocks per task id
system.cpu.dcache.tags.age_task_id_blocks_1024::2          617                       # Occupied blocks per task id
system.cpu.dcache.tags.avg_refs            273.228122                       # Average number of references to valid blocks.
system.cpu.dcache.tags.data_accesses         73604133                       # Number of data accesses
system.cpu.dcache.tags.occ_blocks::.cpu.data   529.113875                       # Average occupied blocks per requestor
system.cpu.dcache.tags.occ_blocks::.cpu.dcache.prefetcher   494.420629                       # Average occupied blocks per requestor
system.cpu.dcache.tags.occ_percent::.cpu.data     0.516713                       # Average percentage of cache occupancy
system.cpu.dcache.tags.occ_percent::.cpu.dcache.prefetcher     0.482833                       # Average percentage of cache occupancy
system.cpu.dcache.tags.occ_percent::total     0.999545                       # Average percentage of cache occupancy
system.cpu.dcache.tags.occ_task_id_blocks::1022          157                       # Occupied blocks per task id
system.cpu.dcache.tags.occ_task_id_blocks::1024          867                       # Occupied blocks per task id
system.cpu.dcache.tags.occ_task_id_percent::1022     0.153320                       # Percentage of cache occupancy per task id
system.cpu.dcache.tags.occ_task_id_percent::1024     0.846680                       # Percentage of cache occupancy per task id
system.cpu.dcache.tags.pwrStateResidencyTicks::UNDEFINED 200002640500                       # Cumulative time (in ticks) in various power states
system.cpu.dcache.tags.sampled_refs            134643                       # Sample count of references to valid blocks.
system.cpu.dcache.tags.tag_accesses          73604133                       # Number of tag accesses
system.cpu.dcache.tags.tagsinuse          1023.534504                       # Cycle average of tags in use
system.cpu.dcache.tags.total_refs            36788254                       # Total number of references to valid blocks.
system.cpu.dcache.tags.warmup_cycle            174500                       # Cycle when the warmup percentage was hit.
system.cpu.dcache.unused_prefetches              8304                       # number of HardPF blocks evicted w/o reference
system.cpu.dcache.writebacks::.writebacks       112185                       # number of writebacks
system.cpu.dcache.writebacks::total            112185                       # number of writebacks
system.cpu.dtb.pwrStateResidencyTicks::UNDEFINED 200002640500                       # Cumulative time (in ticks) in various power states
system.cpu.dtb.rdAccesses                    27137505                       # TLB accesses on read requests
system.cpu.dtb.rdMisses                          1508                       # TLB misses on read requests
system.cpu.dtb.walker.pwrStateResidencyTicks::UNDEFINED 200002640500                       # Cumulative time (in ticks) in various power states
system.cpu.dtb.wrAccesses                     9597240                       # TLB accesses on write requests
system.cpu.dtb.wrMisses                           929                       # TLB misses on write requests
system.cpu.dtb_walker_cache.avg_blocked_cycles::no_mshrs          nan                       # average number of cycles each access was blocked
system.cpu.dtb_walker_cache.avg_blocked_cycles::no_targets          nan                       # average number of cycles each access was blocked
system.cpu.dtb_walker_cache.blocked::no_mshrs            0                       # number of cycles access was blocked
system.cpu.dtb_walker_cache.blocked::no_targets            0                       # number of cycles access was blocked
system.cpu.dtb_walker_cache.blocked_cycles::no_mshrs            0                       # number of cycles access was blocked
system.cpu.dtb_walker_cache.blocked_cycles::no_targets            0                       # number of cycles access was blocked
system.cpu.dtb_walker_cache.pwrStateResidencyTicks::UNDEFINED 200002640500                       # Cumulative time (in ticks) in various power states
system.cpu.dtb_walker_cache.replacements            0                       # number of replacements
system.cpu.dtb_walker_cache.tags.avg_refs          nan                       # Average number of references to valid blocks.
system.cpu.dtb_walker_cache.tags.data_accesses            0                       # Number of data accesses
system.cpu.dtb_walker_cache.tags.pwrStateResidencyTicks::UNDEFINED 200002640500                       # Cumulative time (in ticks) in various power states
system.cpu.dtb_walker_cache.tags.sampled_refs            0                       # Sample count of references to valid blocks.
system.cpu.dtb_walker_cache.tags.tag_accesses            0                       # Number of tag accesses
system.cpu.dtb_walker_cache.tags.tagsinuse            0                       # Cycle average of tags in use
system.cpu.dtb_walker_cache.tags.total_refs            0                       # Total number of references to valid blocks.
system.cpu.dtb_walker_cache.tags.warmup_cycle            0                       # Cycle when the warmup percentage was hit.
system.cpu.icache.ReadReq_accesses::.cpu.inst    159672073                       # number of ReadReq accesses(hits+misses)
system.cpu.icache.ReadReq_accesses::total    159672073                       # number of ReadReq accesses(hits+misses)
system.cpu.icache.ReadReq_avg_miss_latency::.cpu.inst 18699.303874                       # average ReadReq miss latency
system.cpu.icache.ReadReq_avg_miss_latency::total 18699.303874                       # average ReadReq miss latency
system.cpu.icache.ReadReq_avg_mshr_miss_latency::.cpu.inst 17699.303874                       # average ReadReq mshr miss latency
system.cpu.icache.ReadReq_avg_mshr_miss_latency::total 17699.303874                       # average ReadReq mshr miss latency
system.cpu.icache.ReadReq_hits::.cpu.inst    159602689                       # number of ReadReq hits
system.cpu.icache.ReadReq_hits::total       159602689                       # number of ReadReq hits
system.cpu.icache.ReadReq_miss_latency::.cpu.inst   1297432500                       # number of ReadReq miss cycles
system.cpu.icache.ReadReq_miss_latency::total   1297432500                       # number of ReadReq miss cycles
system.cpu.icache.ReadReq_miss_rate::.cpu.inst     0.000435                       # miss rate for ReadReq accesses
system.cpu.icache.ReadReq_miss_rate::total     0.000435                       # miss rate for ReadReq accesses
system.cpu.icache.ReadReq_misses::.cpu.inst        69384                       # number of ReadReq misses
system.cpu.icache.ReadReq_misses::total         69384                       # number of ReadReq misses
system.cpu.icache.ReadReq_mshr_miss_latency::.cpu.inst   1228048500                       # number of ReadReq MSHR miss cycles
system.cpu.icache.ReadReq_mshr_miss_latency::total   1228048500                       # number of ReadReq MSHR miss cycles
system.cpu.icache.ReadReq_mshr_miss_rate::.cpu.inst     0.000435                       # mshr miss rate for ReadReq accesses
system.cpu.icache.ReadReq_mshr_miss_rate::total     0.000435                       # mshr miss rate for ReadReq accesses
system.cpu.icache.ReadReq_mshr_misses::.cpu.inst        69384                       # number of ReadReq MSHR misses
system.cpu.icache.ReadReq_mshr_misses::total        69384                       # number of ReadReq MSHR misses
system.cpu.icache.avg_blocked_cycles::no_mshrs          nan                       # average number of cycles each access was blocked
system.cpu.icache.avg_blocked_cycles::no_targets          nan                       # average number of cycles each access was blocked
system.cpu.icache.blocked::no_mshrs                 0                       # number of cycles access was blocked
system.cpu.icache.blocked::no_targets               0                       # number of cycles access was blocked
system.cpu.icache.blocked_cycles::no_mshrs            0                       # number of cycles access was blocked
system.cpu.icache.blocked_cycles::no_targets            0                       # number of cycles access was blocked
system.cpu.icache.demand_accesses::.cpu.inst    159672073                       # number of demand (read+write) accesses
system.cpu.icache.demand_accesses::total    159672073                       # number of demand (read+write) accesses
system.cpu.icache.demand_avg_miss_latency::.cpu.inst 18699.303874                       # average overall miss latency
system.cpu.icache.demand_avg_miss_latency::total 18699.303874                       # average overall miss latency
system.cpu.icache.demand_avg_mshr_miss_latency::.cpu.inst 17699.303874                       # average overall mshr miss latency
system.cpu.icache.demand_avg_mshr_miss_latency::total 17699.303874                       # average overall mshr miss latency
system.cpu.icache.demand_hits::.cpu.inst    159602689                       # number of demand (read+write) hits
system.cpu.icache.demand_hits::total        159602689                       # number of demand (read+write) hits
system.cpu.icache.demand_miss_latency::.cpu.inst   1297432500                       # number of demand (read+write) miss cycles
system.cpu.icache.demand_miss_latency::total   1297432500                       # number of demand (read+write) miss cycles
system.cpu.icache.demand_miss_rate::.cpu.inst     0.000435                       # miss rate for demand accesses
system.cpu.icache.demand_miss_rate::total     0.000435                       # miss rate for demand accesses
system.cpu.icache.demand_misses::.cpu.inst        69384                       # number of demand (read+write) misses
system.cpu.icache.demand_misses::total          69384                       # number of demand (read+write) misses
system.cpu.icache.demand_mshr_miss_latency::.cpu.inst   1228048500                       # number of demand (read+write) MSHR miss cycles
system.cpu.icache.demand_mshr_miss_latency::total   1228048500                       # number of demand (read+write) MSHR miss cycles
system.cpu.icache.demand_mshr_miss_rate::.cpu.inst     0.000435                       # mshr miss rate for demand accesses
system.cpu.icache.demand_mshr_miss_rate::total     0.000435                       # mshr miss rate for demand accesses
system.cpu.icache.demand_mshr_misses::.cpu.inst        69384                       # number of demand (read+write) MSHR misses
system.cpu.icache.demand_mshr_misses::total        69384                       # number of demand (read+write) MSHR misses
system.cpu.icache.overall_accesses::.cpu.inst    159672073                       # number of overall (read+write) accesses
system.cpu.icache.overall_accesses::total    159672073                       # number of overall (read+write) accesses
system.cpu.icache.overall_avg_miss_latency::.cpu.inst 18699.303874                       # average overall miss latency
system.cpu.icache.overall_avg_miss_latency::total 18699.303874                       # average overall miss latency
system.cpu.icache.overall_avg_mshr_miss_latency::.cpu.inst 17699.303874                       # average overall mshr miss latency
system.cpu.icache.overall_avg_mshr_miss_latency::total 17699.303874                       # average overall mshr miss latency
system.cpu.icache.overall_hits::.cpu.inst    159602689                       # number of overall hits
system.cpu.icache.overall_hits::total       159602689                       # number of overall hits
system.cpu.icache.overall_miss_latency::.cpu.inst   1297432500                       # number of overall miss cycles
system.cpu.icache.overall_miss_latency::total   1297432500                       # number of overall miss cycles
system.cpu.icache.overall_miss_rate::.cpu.inst     0.000435                       # miss rate for overall accesses
system.cpu.icache.overall_miss_rate::total     0.000435                       # miss rate for overall accesses
system.cpu.icache.overall_misses::.cpu.inst        69384                       # number of overall misses
system.cpu.icache.overall_misses::total         69384                       # number of overall misses
system.cpu.icache.overall_mshr_miss_latency::.cpu.inst   1228048500                       # number of overall MSHR miss cycles
system.cpu.icache.overall_mshr_miss_latency::total   1228048500                       # number of overall MSHR miss cycles
system.cpu.icache.overall_mshr_miss_rate::.cpu.inst     0.000435                       # mshr miss rate for overall accesses
system.cpu.icache.overall_mshr_miss_rate::total     0.000435                       # mshr miss rate for overall accesses
system.cpu.icache.overall_mshr_misses::.cpu.inst        69384                       # number of overall MSHR misses
system.cpu.icache.overall_mshr_misses::total        69384                       # number of overall MSHR misses
system.cpu.icache.pwrStateResidencyTicks::UNDEFINED 200002640500                       # Cumulative time (in ticks) in various power states
system.cpu.icache.replacements                  68872                       # number of replacements
system.cpu.icache.tags.age_task_id_blocks_1024::0           91                       # Occupied blocks per task id
system.cpu.icache.tags.age_task_id_blocks_1024::1          308                       # Occupied blocks per task id
system.cpu.icache.tags.age_task_id_blocks_1024::2           93                       # Occupied blocks per task id
system.cpu.icache.tags.age_task_id_blocks_1024::3           20                       # Occupied blocks per task id
system.cpu.icache.tags.avg_refs           2301.280886                       # Average number of references to valid blocks.
system.cpu.icache.tags.data_accesses        319413530                       # Number of data accesses
system.cpu.icache.tags.occ_blocks::.cpu.inst   511.204650                       # Average occupied blocks per requestor
system.cpu.icache.tags.occ_percent::.cpu.inst     0.998447                       # Average percentage of cache occupancy
system.cpu.icache.tags.occ_percent::total     0.998447                       # Average percentage of cache occupancy
system.cpu.icache.tags.occ_task_id_blocks::1024          512                       # Occupied blocks per task id
system.cpu.icache.tags.occ_task_id_percent::1024            1                       # Percentage of cache occupancy per task id
system.cpu.icache.tags.pwrStateResidencyTicks::UNDEFINED 200002640500                       # Cumulative time (in ticks) in various power states
system.cpu.icache.tags.sampled_refs             69384                       # Sample count of references to valid blocks.
system.cpu.icache.tags.tag_accesses         319413530                       # Number of tag accesses
system.cpu.icache.tags.tagsinuse           511.204650                       # Cycle average of tags in use
system.cpu.icache.tags.total_refs           159672073                       # Total number of references to valid blocks.
system.cpu.icache.tags.warmup_cycle             87500                       # Cycle when the warmup percentage was hit.
system.cpu.icache.writebacks::.writebacks        68872                       # number of writebacks
system.cpu.icache.writebacks::total             68872                       # number of writebacks
system.cpu.idle_fraction                     0.000000                       # Percentage of idle cycles
system.cpu.interrupts.pwrStateResidencyTicks::UNDEFINED 200002640500                       # Cumulative time (in ticks) in various power states
system.cpu.itb.pwrStateResidencyTicks::UNDEFINED 200002640500                       # Cumulative time (in ticks) in various power states
system.cpu.itb.rdAccesses                           0                       # TLB accesses on read requests
system.cpu.itb.rdMisses                             0                       # TLB misses on read requests
system.cpu.itb.walker.pwrStateResidencyTicks::UNDEFINED 200002640500                       # Cumulative time (in ticks) in various power states
system.cpu.itb.wrAccesses                   159672073                       # TLB accesses on write requests
system.cpu.itb.wrMisses                          1463                       # TLB misses on write requests
system.cpu.itb_walker_cache.avg_blocked_cycles::no_mshrs          nan                       # average number of cycles each access was blocked
system.cpu.itb_walker_cache.avg_blocked_cycles::no_targets          nan                       # average number of cycles each access was blocked
system.cpu.itb_walker_cache.blocked::no_mshrs            0                       # number of cycles access was blocked
system.cpu.itb_walker_cache.blocked::no_targets            0                       # number of cycles access was blocked
system.cpu.itb_walker_cache.blocked_cycles::no_mshrs            0                       # number of cycles access was blocked
system.cpu.itb_walker_cache.blocked_cycles::no_targets            0                       # number of cycles access was blocked
system.cpu.itb_walker_cache.pwrStateResidencyTicks::UNDEFINED 200002640500                       # Cumulative time (in ticks) in various power states
system.cpu.itb_walker_cache.replacements            0                       # number of replacements
system.cpu.itb_walker_cache.tags.avg_refs          nan                       # Average number of references to valid blocks.
system.cpu.itb_walker_cache.tags.data_accesses            0                       # Number of data accesses
system.cpu.itb_walker_cache.tags.pwrStateResidencyTicks::UNDEFINED 200002640500                       # Cumulative time (in ticks) in various power states
system.cpu.itb_walker_cache.tags.sampled_refs            0                       # Sample count of references to valid blocks.
system.cpu.itb_walker_cache.tags.tag_accesses            0                       # Number of tag accesses
system.cpu.itb_walker_cache.tags.tagsinuse            0                       # Cycle average of tags in use
system.cpu.itb_walker_cache.tags.total_refs            0                       # Total number of references to valid blocks.
system.cpu.itb_walker_cache.tags.warmup_cycle            0                       # Cycle when the warmup percentage was hit.
system.cpu.not_idle_fraction                 1.000000                       # Percentage of non-idle cycles
system.cpu.numCycles                        400005281                       # number of cpu cycles simulated
system.cpu.numWorkItemsCompleted                    0                       # number of work items this cpu completed
system.cpu.numWorkItemsStarted                      0                       # number of work items this cpu started
system.cpu.num_busy_cycles               400005280.998000                       # Number of busy cycles
system.cpu.num_cc_register_reads             54232392                       # number of times the CC registers were read
system.cpu.num_cc_register_writes            45345396                       # number of times the CC registers were written
system.cpu.num_conditional_control_insts      6805704                       # number of instructions that are conditional controls
system.cpu.num_fp_alu_accesses               96307035                       # Number of float alu accesses
system.cpu.num_fp_insts                      96307035                       # number of float instructions
system.cpu.num_fp_register_reads            145839479                       # number of times the floating registers were read
system.cpu.num_fp_register_writes            86555738                       # number of times the floating registers were written
system.cpu.num_func_calls                      485460                       # number of times a function call or return occured
system.cpu.num_idle_cycles                   0.002000                       # Number of idle cycles
system.cpu.num_int_alu_accesses             114944786                       # Number of integer alu accesses
system.cpu.num_int_insts                    114944786                       # number of integer instructions
system.cpu.num_int_register_reads           235929553                       # number of times the integer registers were read
system.cpu.num_int_register_writes           83749126                       # number of times the integer registers were written
system.cpu.num_load_insts                    26947465                       # Number of load instructions
system.cpu.num_mem_refs                      36536526                       # number of memory refs
system.cpu.num_store_insts                    9589061                       # Number of store instructions
system.cpu.num_vec_alu_accesses                     0                       # Number of vector alu accesses
system.cpu.num_vec_insts                            0                       # number of vector instructions
system.cpu.num_vec_register_reads                   0                       # number of times the vector registers were read
system.cpu.num_vec_register_writes                  0                       # number of times the vector registers were written
system.cpu.op_class::No_OpClass                956446      0.51%      0.51% # Class of executed instruction
system.cpu.op_class::IntAlu                  84508922     45.01%     45.52% # Class of executed instruction
system.cpu.op_class::IntMult                  1071143      0.57%     46.09% # Class of executed instruction
system.cpu.op_class::IntDiv                      4095      0.00%     46.10% # Class of executed instruction
system.cpu.op_class::FloatAdd                14896101      7.93%     54.03% # Class of executed instruction
system.cpu.op_class::FloatCmp                       0      0.00%     54.03% # Class of executed instruction
system.cpu.op_class::FloatCvt                     544      0.00%     54.03% # Class of executed instruction
system.cpu.op_class::FloatMult                      0      0.00%     54.03% # Class of executed instruction
system.cpu.op_class::FloatMultAcc                   0      0.00%     54.03% # Class of executed instruction
system.cpu.op_class::FloatDiv                       0      0.00%     54.03% # Class of executed instruction
system.cpu.op_class::FloatMisc                      0      0.00%     54.03% # Class of executed instruction
system.cpu.op_class::FloatSqrt                      0      0.00%     54.03% # Class of executed instruction
system.cpu.op_class::SimdAdd                    18362      0.01%     54.04% # Class of executed instruction
system.cpu.op_class::SimdAddAcc                     0      0.00%     54.04% # Class of executed instruction
system.cpu.op_class::SimdAlu                 14216088      7.57%     61.61% # Class of executed instruction
system.cpu.op_class::SimdCmp                       14      0.00%     61.61% # Class of executed instruction
system.cpu.op_class::SimdCvt                  1105818      0.59%     62.20% # Class of executed instruction
system.cpu.op_class::SimdMisc                 3935337      2.10%     64.30% # Class of executed instruction
system.cpu.op_class::SimdMult                      36      0.00%     64.30% # Class of executed instruction
system.cpu.op_class::SimdMultAcc                    0      0.00%     64.30% # Class of executed instruction
system.cpu.op_class::SimdShift                  23724      0.01%     64.31% # Class of executed instruction
system.cpu.op_class::SimdShiftAcc                   0      0.00%     64.31% # Class of executed instruction
system.cpu.op_class::SimdDiv                        0      0.00%     64.31% # Class of executed instruction
system.cpu.op_class::SimdSqrt                       0      0.00%     64.31% # Class of executed instruction
system.cpu.op_class::SimdFloatAdd            11540282      6.15%     70.46% # Class of executed instruction
system.cpu.op_class::SimdFloatAlu                   0      0.00%     70.46% # Class of executed instruction
system.cpu.op_class::SimdFloatCmp              639425      0.34%     70.80% # Class of executed instruction
system.cpu.op_class::SimdFloatCvt             8692884      4.63%     75.43% # Class of executed instruction
system.cpu.op_class::SimdFloatDiv              155668      0.08%     75.51% # Class of executed instruction
system.cpu.op_class::SimdFloatMisc                  0      0.00%     75.51% # Class of executed instruction
system.cpu.op_class::SimdFloatMult            9306064      4.96%     80.47% # Class of executed instruction
system.cpu.op_class::SimdFloatMultAcc               0      0.00%     80.47% # Class of executed instruction
system.cpu.op_class::SimdFloatSqrt             129790      0.07%     80.54% # Class of executed instruction
system.cpu.op_class::SimdReduceAdd                  0      0.00%     80.54% # Class of executed instruction
system.cpu.op_class::SimdReduceAlu                  0      0.00%     80.54% # Class of executed instruction
system.cpu.op_class::SimdReduceCmp                  0      0.00%     80.54% # Class of executed instruction
system.cpu.op_class::SimdFloatReduceAdd             0      0.00%     80.54% # Class of executed instruction
system.cpu.op_class::SimdFloatReduceCmp             0      0.00%     80.54% # Class of executed instruction
system.cpu.op_class::SimdAes                        0      0.00%     80.54% # Class of executed instruction
system.cpu.op_class::SimdAesMix                     0      0.00%     80.54% # Class of executed instruction
system.cpu.op_class::SimdSha1Hash                   0      0.00%     80.54% # Class of executed instruction
system.cpu.op_class::SimdSha1Hash2                  0      0.00%     80.54% # Class of executed instruction
system.cpu.op_class::SimdSha256Hash                 0      0.00%     80.54% # Class of executed instruction
system.cpu.op_class::SimdSha256Hash2                0      0.00%     80.54% # Class of executed instruction
system.cpu.op_class::SimdShaSigma2                  0      0.00%     80.54% # Class of executed instruction
system.cpu.op_class::SimdShaSigma3                  0      0.00%     80.54% # Class of executed instruction
system.cpu.op_class::SimdPredAlu                    0      0.00%     80.54% # Class of executed instruction
system.cpu.op_class::MemRead                 11391471      6.07%     86.61% # Class of executed instruction
system.cpu.op_class::MemWrite                 3995511      2.13%     88.73% # Class of executed instruction
system.cpu.op_class::FloatMemRead            15555994      8.29%     97.02% # Class of executed instruction
system.cpu.op_class::FloatMemWrite            5593550      2.98%    100.00% # Class of executed instruction
system.cpu.op_class::IprAccess                      0      0.00%    100.00% # Class of executed instruction
system.cpu.op_class::InstPrefetch                   0      0.00%    100.00% # Class of executed instruction
system.cpu.op_class::total                  187737269                       # Class of executed instruction
system.cpu.pwrStateResidencyTicks::ON    200002640500                       # Cumulative time (in ticks) in various power states
system.cpu.workload.numSyscalls                    82                       # Number of system calls
system.cpu_clk_domain.clock                       500                       # Clock period in ticks
system.cpu_voltage_domain.voltage                   1                       # Voltage in Volts
system.l2.ReadCleanReq_accesses::.cpu.inst        69384                       # number of ReadCleanReq accesses(hits+misses)
system.l2.ReadCleanReq_accesses::total          69384                       # number of ReadCleanReq accesses(hits+misses)
system.l2.ReadCleanReq_avg_miss_latency::.cpu.inst 100880.422309                       # average ReadCleanReq miss latency
system.l2.ReadCleanReq_avg_miss_latency::total 100880.422309                       # average ReadCleanReq miss latency
system.l2.ReadCleanReq_avg_mshr_miss_latency::.cpu.inst 90880.422309                       # average ReadCleanReq mshr miss latency
system.l2.ReadCleanReq_avg_mshr_miss_latency::total 90880.422309                       # average ReadCleanReq mshr miss latency
system.l2.ReadCleanReq_hits::.cpu.inst          65027                       # number of ReadCleanReq hits
system.l2.ReadCleanReq_hits::total              65027                       # number of ReadCleanReq hits
system.l2.ReadCleanReq_miss_latency::.cpu.inst    439536000                       # number of ReadCleanReq miss cycles
system.l2.ReadCleanReq_miss_latency::total    439536000                       # number of ReadCleanReq miss cycles
system.l2.ReadCleanReq_miss_rate::.cpu.inst     0.062795                       # miss rate for ReadCleanReq accesses
system.l2.ReadCleanReq_miss_rate::total      0.062795                       # miss rate for ReadCleanReq accesses
system.l2.ReadCleanReq_misses::.cpu.inst         4357                       # number of ReadCleanReq misses
system.l2.ReadCleanReq_misses::total             4357                       # number of ReadCleanReq misses
system.l2.ReadCleanReq_mshr_miss_latency::.cpu.inst    395966000                       # number of ReadCleanReq MSHR miss cycles
system.l2.ReadCleanReq_mshr_miss_latency::total    395966000                       # number of ReadCleanReq MSHR miss cycles
system.l2.ReadCleanReq_mshr_miss_rate::.cpu.inst     0.062795                       # mshr miss rate for ReadCleanReq accesses
system.l2.ReadCleanReq_mshr_miss_rate::total     0.062795                       # mshr miss rate for ReadCleanReq accesses
system.l2.ReadCleanReq_mshr_misses::.cpu.inst         4357                       # number of ReadCleanReq MSHR misses
system.l2.ReadCleanReq_mshr_misses::total         4357                       # number of ReadCleanReq MSHR misses
system.l2.ReadExReq_accesses::.cpu.data         37937                       # number of ReadExReq accesses(hits+misses)
system.l2.ReadExReq_accesses::total             37937                       # number of ReadExReq accesses(hits+misses)
system.l2.ReadExReq_avg_miss_latency::.cpu.data 81124.710849                       # average ReadExReq miss latency
system.l2.ReadExReq_avg_miss_latency::total 81124.710849                       # average ReadExReq miss latency
system.l2.ReadExReq_avg_mshr_miss_latency::.cpu.data 71124.710849                       # average ReadExReq mshr miss latency
system.l2.ReadExReq_avg_mshr_miss_latency::total 71124.710849                       # average ReadExReq mshr miss latency
system.l2.ReadExReq_hits::.cpu.data             20645                       # number of ReadExReq hits
system.l2.ReadExReq_hits::total                 20645                       # number of ReadExReq hits
system.l2.ReadExReq_miss_latency::.cpu.data   1402808500                       # number of ReadExReq miss cycles
system.l2.ReadExReq_miss_latency::total    1402808500                       # number of ReadExReq miss cycles
system.l2.ReadExReq_miss_rate::.cpu.data     0.455808                       # miss rate for ReadExReq accesses
system.l2.ReadExReq_miss_rate::total         0.455808                       # miss rate for ReadExReq accesses
system.l2.ReadExReq_misses::.cpu.data           17292                       # number of ReadExReq misses
system.l2.ReadExReq_misses::total               17292                       # number of ReadExReq misses
system.l2.ReadExReq_mshr_miss_latency::.cpu.data   1229888500                       # number of ReadExReq MSHR miss cycles
system.l2.ReadExReq_mshr_miss_latency::total   1229888500                       # number of ReadExReq MSHR miss cycles
system.l2.ReadExReq_mshr_miss_rate::.cpu.data     0.455808                       # mshr miss rate for ReadExReq accesses
system.l2.ReadExReq_mshr_miss_rate::total     0.455808                       # mshr miss rate for ReadExReq accesses
system.l2.ReadExReq_mshr_misses::.cpu.data        17292                       # number of ReadExReq MSHR misses
system.l2.ReadExReq_mshr_misses::total          17292                       # number of ReadExReq MSHR misses
system.l2.ReadSharedReq_accesses::.cpu.data        42941                       # number of ReadSharedReq accesses(hits+misses)
system.l2.ReadSharedReq_accesses::.cpu.dcache.prefetcher        53765                       # number of ReadSharedReq accesses(hits+misses)
system.l2.ReadSharedReq_accesses::total         96706                       # number of ReadSharedReq accesses(hits+misses)
system.l2.ReadSharedReq_avg_miss_latency::.cpu.data 132406.078611                       # average ReadSharedReq miss latency
system.l2.ReadSharedReq_avg_miss_latency::.cpu.dcache.prefetcher 98170.209302                       # average ReadSharedReq miss latency
system.l2.ReadSharedReq_avg_miss_latency::total 109345.516187                       # average ReadSharedReq miss latency
system.l2.ReadSharedReq_avg_mshr_miss_latency::.cpu.data 122406.078611                       # average ReadSharedReq mshr miss latency
system.l2.ReadSharedReq_avg_mshr_miss_latency::.cpu.dcache.prefetcher 88170.209302                       # average ReadSharedReq mshr miss latency
system.l2.ReadSharedReq_avg_mshr_miss_latency::total 99345.516187                       # average ReadSharedReq mshr miss latency
system.l2.ReadSharedReq_hits::.cpu.data         40753                       # number of ReadSharedReq hits
system.l2.ReadSharedReq_hits::.cpu.dcache.prefetcher        49250                       # number of ReadSharedReq hits
system.l2.ReadSharedReq_hits::total             90003                       # number of ReadSharedReq hits
system.l2.ReadSharedReq_miss_latency::.cpu.data    289704500                       # number of ReadSharedReq miss cycles
system.l2.ReadSharedReq_miss_latency::.cpu.dcache.prefetcher    443238495                       # number of ReadSharedReq miss cycles
system.l2.ReadSharedReq_miss_latency::total    732942995                       # number of ReadSharedReq miss cycles
system.l2.ReadSharedReq_miss_rate::.cpu.data     0.050954                       # miss rate for ReadSharedReq accesses
system.l2.ReadSharedReq_miss_rate::.cpu.dcache.prefetcher     0.083977                       # miss rate for ReadSharedReq accesses
system.l2.ReadSharedReq_miss_rate::total     0.069313                       # miss rate for ReadSharedReq accesses
system.l2.ReadSharedReq_misses::.cpu.data         2188                       # number of ReadSharedReq misses
system.l2.ReadSharedReq_misses::.cpu.dcache.prefetcher         4515                       # number of ReadSharedReq misses
system.l2.ReadSharedReq_misses::total            6703                       # number of ReadSharedReq misses
system.l2.ReadSharedReq_mshr_miss_latency::.cpu.data    267824500                       # number of ReadSharedReq MSHR miss cycles
system.l2.ReadSharedReq_mshr_miss_latency::.cpu.dcache.prefetcher    398088495                       # number of ReadSharedReq MSHR miss cycles
system.l2.ReadSharedReq_mshr_miss_latency::total    665912995                       # number of ReadSharedReq MSHR miss cycles
system.l2.ReadSharedReq_mshr_miss_rate::.cpu.data     0.050954                       # mshr miss rate for ReadSharedReq accesses
system.l2.ReadSharedReq_mshr_miss_rate::.cpu.dcache.prefetcher     0.083977                       # mshr miss rate for ReadSharedReq accesses
system.l2.ReadSharedReq_mshr_miss_rate::total     0.069313                       # mshr miss rate for ReadSharedReq accesses
system.l2.ReadSharedReq_mshr_misses::.cpu.data         2188                       # number of ReadSharedReq MSHR misses
system.l2.ReadSharedReq_mshr_misses::.cpu.dcache.prefetcher         4515                       # number of ReadSharedReq MSHR misses
system.l2.ReadSharedReq_mshr_misses::total         6703                       # number of ReadSharedReq MSHR misses
system.l2.WritebackClean_accesses::.writebacks        68871                       # number of WritebackClean accesses(hits+misses)
system.l2.WritebackClean_accesses::total        68871                       # number of WritebackClean accesses(hits+misses)
system.l2.WritebackClean_hits::.writebacks        68871                       # number of WritebackClean hits
system.l2.WritebackClean_hits::total            68871                       # number of WritebackClean hits
system.l2.WritebackDirty_accesses::.writebacks       112185                       # number of WritebackDirty accesses(hits+misses)
system.l2.WritebackDirty_accesses::total       112185                       # number of WritebackDirty accesses(hits+misses)
system.l2.WritebackDirty_hits::.writebacks       112185                       # number of WritebackDirty hits
system.l2.WritebackDirty_hits::total           112185                       # number of WritebackDirty hits
system.l2.avg_blocked_cycles::no_mshrs            nan                       # average number of cycles each access was blocked
system.l2.avg_blocked_cycles::no_targets          nan                       # average number of cycles each access was blocked
system.l2.blocked::no_mshrs                         0                       # number of cycles access was blocked
system.l2.blocked::no_targets                       0                       # number of cycles access was blocked
system.l2.blocked_cycles::no_mshrs                  0                       # number of cycles access was blocked
system.l2.blocked_cycles::no_targets                0                       # number of cycles access was blocked
system.l2.demand_accesses::.cpu.inst            69384                       # number of demand (read+write) accesses
system.l2.demand_accesses::.cpu.data            80878                       # number of demand (read+write) accesses
system.l2.demand_accesses::.cpu.dcache.prefetcher        53765                       # number of demand (read+write) accesses
system.l2.demand_accesses::total               204027                       # number of demand (read+write) accesses
system.l2.demand_avg_miss_latency::.cpu.inst 100880.422309                       # average overall miss latency
system.l2.demand_avg_miss_latency::.cpu.data 86884.650924                       # average overall miss latency
system.l2.demand_avg_miss_latency::.cpu.dcache.prefetcher 98170.209302                       # average overall miss latency
system.l2.demand_avg_miss_latency::total 90832.657132                       # average overall miss latency
system.l2.demand_avg_mshr_miss_latency::.cpu.inst 90880.422309                       # average overall mshr miss latency
system.l2.demand_avg_mshr_miss_latency::.cpu.data 76884.650924                       # average overall mshr miss latency
system.l2.demand_avg_mshr_miss_latency::.cpu.dcache.prefetcher 88170.209302                       # average overall mshr miss latency
system.l2.demand_avg_mshr_miss_latency::total 80832.657132                       # average overall mshr miss latency
system.l2.demand_hits::.cpu.inst                65027                       # number of demand (read+write) hits
system.l2.demand_hits::.cpu.data                61398                       # number of demand (read+write) hits
system.l2.demand_hits::.cpu.dcache.prefetcher        49250                       # number of demand (read+write) hits
system.l2.demand_hits::total                   175675                       # number of demand (read+write) hits
system.l2.demand_miss_latency::.cpu.inst    439536000                       # number of demand (read+write) miss cycles
system.l2.demand_miss_latency::.cpu.data   1692513000                       # number of demand (read+write) miss cycles
system.l2.demand_miss_latency::.cpu.dcache.prefetcher    443238495                       # number of demand (read+write) miss cycles
system.l2.demand_miss_latency::total       2575287495                       # number of demand (read+write) miss cycles
system.l2.demand_miss_rate::.cpu.inst        0.062795                       # miss rate for demand accesses
system.l2.demand_miss_rate::.cpu.data        0.240857                       # miss rate for demand accesses
system.l2.demand_miss_rate::.cpu.dcache.prefetcher     0.083977                       # miss rate for demand accesses
system.l2.demand_miss_rate::total            0.138962                       # miss rate for demand accesses
system.l2.demand_misses::.cpu.inst               4357                       # number of demand (read+write) misses
system.l2.demand_misses::.cpu.data              19480                       # number of demand (read+write) misses
system.l2.demand_misses::.cpu.dcache.prefetcher         4515                       # number of demand (read+write) misses
system.l2.demand_misses::total                  28352                       # number of demand (read+write) misses
system.l2.demand_mshr_miss_latency::.cpu.inst    395966000                       # number of demand (read+write) MSHR miss cycles
system.l2.demand_mshr_miss_latency::.cpu.data   1497713000                       # number of demand (read+write) MSHR miss cycles
system.l2.demand_mshr_miss_latency::.cpu.dcache.prefetcher    398088495                       # number of demand (read+write) MSHR miss cycles
system.l2.demand_mshr_miss_latency::total   2291767495                       # number of demand (read+write) MSHR miss cycles
system.l2.demand_mshr_miss_rate::.cpu.inst     0.062795                       # mshr miss rate for demand accesses
system.l2.demand_mshr_miss_rate::.cpu.data     0.240857                       # mshr miss rate for demand accesses
system.l2.demand_mshr_miss_rate::.cpu.dcache.prefetcher     0.083977                       # mshr miss rate for demand accesses
system.l2.demand_mshr_miss_rate::total       0.138962                       # mshr miss rate for demand accesses
system.l2.demand_mshr_misses::.cpu.inst          4357                       # number of demand (read+write) MSHR misses
system.l2.demand_mshr_misses::.cpu.data         19480                       # number of demand (read+write) MSHR misses
system.l2.demand_mshr_misses::.cpu.dcache.prefetcher         4515                       # number of demand (read+write) MSHR misses
system.l2.demand_mshr_misses::total             28352                       # number of demand (read+write) MSHR misses
system.l2.overall_accesses::.cpu.inst           69384                       # number of overall (read+write) accesses
system.l2.overall_accesses::.cpu.data           80878                       # number of overall (read+write) accesses
system.l2.overall_accesses::.cpu.dcache.prefetcher        53765                       # number of overall (read+write) accesses
system.l2.overall_accesses::total              204027                       # number of overall (read+write) accesses
system.l2.overall_avg_miss_latency::.cpu.inst 100880.422309                       # average overall miss latency
system.l2.overall_avg_miss_latency::.cpu.data 86884.650924                       # average overall miss latency
system.l2.overall_avg_miss_latency::.cpu.dcache.prefetcher 98170.209302                       # average overall miss latency
system.l2.overall_avg_miss_latency::total 90832.657132                       # average overall miss latency
system.l2.overall_avg_mshr_miss_latency::.cpu.inst 90880.422309                       # average overall mshr miss latency
system.l2.overall_avg_mshr_miss_latency::.cpu.data 76884.650924                       # average overall mshr miss latency
system.l2.overall_avg_mshr_miss_latency::.cpu.dcache.prefetcher 88170.209302                       # average overall mshr miss latency
system.l2.overall_avg_mshr_miss_latency::total 80832.657132                       # average overall mshr miss latency
system.l2.overall_hits::.cpu.inst               65027                       # number of overall hits
system.l2.overall_hits::.cpu.data               61398                       # number of overall hits
system.l2.overall_hits::.cpu.dcache.prefetcher        49250                       # number of overall hits
system.l2.overall_hits::total                  175675                       # number of overall hits
system.l2.overall_miss_latency::.cpu.inst    439536000                       # number of overall miss cycles
system.l2.overall_miss_latency::.cpu.data   1692513000                       # number of overall miss cycles
system.l2.overall_miss_latency::.cpu.dcache.prefetcher    443238495                       # number of overall miss cycles
system.l2.overall_miss_latency::total      2575287495                       # number of overall miss cycles
system.l2.overall_miss_rate::.cpu.inst       0.062795                       # miss rate for overall accesses
system.l2.overall_miss_rate::.cpu.data       0.240857                       # miss rate for overall accesses
system.l2.overall_miss_rate::.cpu.dcache.prefetcher     0.083977                       # miss rate for overall accesses
system.l2.overall_miss_rate::total           0.138962                       # miss rate for overall accesses
system.l2.overall_misses::.cpu.inst              4357                       # number of overall misses
system.l2.overall_misses::.cpu.data             19480                       # number of overall misses
system.l2.overall_misses::.cpu.dcache.prefetcher         4515                       # number of overall misses
system.l2.overall_misses::total                 28352                       # number of overall misses
system.l2.overall_mshr_miss_latency::.cpu.inst    395966000                       # number of overall MSHR miss cycles
system.l2.overall_mshr_miss_latency::.cpu.data   1497713000                       # number of overall MSHR miss cycles
system.l2.overall_mshr_miss_latency::.cpu.dcache.prefetcher    398088495                       # number of overall MSHR miss cycles
system.l2.overall_mshr_miss_latency::total   2291767495                       # number of overall MSHR miss cycles
system.l2.overall_mshr_miss_rate::.cpu.inst     0.062795                       # mshr miss rate for overall accesses
system.l2.overall_mshr_miss_rate::.cpu.data     0.240857                       # mshr miss rate for overall accesses
system.l2.overall_mshr_miss_rate::.cpu.dcache.prefetcher     0.083977                       # mshr miss rate for overall accesses
system.l2.overall_mshr_miss_rate::total      0.138962                       # mshr miss rate for overall accesses
system.l2.overall_mshr_misses::.cpu.inst         4357                       # number of overall MSHR misses
system.l2.overall_mshr_misses::.cpu.data        19480                       # number of overall MSHR misses
system.l2.overall_mshr_misses::.cpu.dcache.prefetcher         4515                       # number of overall MSHR misses
system.l2.overall_mshr_misses::total            28352                       # number of overall MSHR misses
system.l2.pwrStateResidencyTicks::UNDEFINED 200002640500                       # Cumulative time (in ticks) in various power states
system.l2.replacements                            771                       # number of replacements
system.l2.tags.age_task_id_blocks_1022::0           10                       # Occupied blocks per task id
system.l2.tags.age_task_id_blocks_1022::1            3                       # Occupied blocks per task id
system.l2.tags.age_task_id_blocks_1022::2            8                       # Occupied blocks per task id
system.l2.tags.age_task_id_blocks_1022::3            3                       # Occupied blocks per task id
system.l2.tags.age_task_id_blocks_1022::4         4203                       # Occupied blocks per task id
system.l2.tags.age_task_id_blocks_1024::0           69                       # Occupied blocks per task id
system.l2.tags.age_task_id_blocks_1024::1          173                       # Occupied blocks per task id
system.l2.tags.age_task_id_blocks_1024::2           74                       # Occupied blocks per task id
system.l2.tags.age_task_id_blocks_1024::3            2                       # Occupied blocks per task id
system.l2.tags.age_task_id_blocks_1024::4        23036                       # Occupied blocks per task id
system.l2.tags.avg_refs                     14.337895                       # Average number of references to valid blocks.
system.l2.tags.data_accesses                  3280416                       # Number of data accesses
system.l2.tags.occ_blocks::.cpu.inst      3827.457533                       # Average occupied blocks per requestor
system.l2.tags.occ_blocks::.cpu.data     18735.166663                       # Average occupied blocks per requestor
system.l2.tags.occ_blocks::.cpu.dcache.prefetcher  4053.004159                       # Average occupied blocks per requestor
system.l2.tags.occ_percent::.cpu.inst        0.116805                       # Average percentage of cache occupancy
system.l2.tags.occ_percent::.cpu.data        0.571752                       # Average percentage of cache occupancy
system.l2.tags.occ_percent::.cpu.dcache.prefetcher     0.123688                       # Average percentage of cache occupancy
system.l2.tags.occ_percent::total            0.812245                       # Average percentage of cache occupancy
system.l2.tags.occ_task_id_blocks::1022          4227                       # Occupied blocks per task id
system.l2.tags.occ_task_id_blocks::1024         23354                       # Occupied blocks per task id
system.l2.tags.occ_task_id_percent::1022     0.128998                       # Percentage of cache occupancy per task id
system.l2.tags.occ_task_id_percent::1024     0.712708                       # Percentage of cache occupancy per task id
system.l2.tags.pwrStateResidencyTicks::UNDEFINED 200002640500                       # Cumulative time (in ticks) in various power states
system.l2.tags.sampled_refs                     28352                       # Sample count of references to valid blocks.
system.l2.tags.tag_accesses                   3280416                       # Number of tag accesses
system.l2.tags.tagsinuse                 26615.628355                       # Cycle average of tags in use
system.l2.tags.total_refs                      406508                       # Total number of references to valid blocks.
system.l2.tags.warmup_cycle                     77000                       # Cycle when the warmup percentage was hit.
system.l2.writebacks::.writebacks                 595                       # number of writebacks
system.l2.writebacks::total                       595                       # number of writebacks
system.mem_ctrls.avgBusLat                    5000.00                       # Average bus latency per DRAM burst
system.mem_ctrls.avgGap                    6909269.54                       # Average gap between requests
system.mem_ctrls.avgMemAccLat                39822.85                       # Average memory access latency per DRAM burst
system.mem_ctrls.avgPriority_.writebacks::samples       595.00                       # Average QoS priority value for accepted requests
system.mem_ctrls.avgPriority_.cpu.inst::samples      4357.00                       # Average QoS priority value for accepted requests
system.mem_ctrls.avgPriority_.cpu.data::samples     19479.00                       # Average QoS priority value for accepted requests
system.mem_ctrls.avgPriority_.cpu.dcache.prefetcher::samples      4515.00                       # Average QoS priority value for accepted requests
system.mem_ctrls.avgQLat                     21072.85                       # Average queueing delay per DRAM burst
system.mem_ctrls.avgRdBW                         9.07                       # Average DRAM read bandwidth in MiByte/s
system.mem_ctrls.avgRdBWSys                      9.07                       # Average system read bandwidth in MiByte/s
system.mem_ctrls.avgRdQLen                       1.04                       # Average read queue length when enqueuing
system.mem_ctrls.avgWrBW                         0.18                       # Average achieved write bandwidth in MiByte/s
system.mem_ctrls.avgWrBWSys                      0.19                       # Average system write bandwidth in MiByte/s
system.mem_ctrls.avgWrQLen                      23.88                       # Average write queue length when enqueuing
system.mem_ctrls.busUtil                         0.07                       # Data bus utilization in percentage
system.mem_ctrls.busUtilRead                     0.07                       # Data bus utilization in percentage for reads
system.mem_ctrls.busUtilWrite                    0.00                       # Data bus utilization in percentage for writes
system.mem_ctrls.bw_inst_read::.cpu.inst      1394222                       # Instruction read bandwidth from this memory (bytes/s)
system.mem_ctrls.bw_inst_read::total          1394222                       # Instruction read bandwidth from this memory (bytes/s)
system.mem_ctrls.bw_read::.cpu.inst           1394222                       # Total read bandwidth from this memory (bytes/s)
system.mem_ctrls.bw_read::.cpu.data           6233518                       # Total read bandwidth from this memory (bytes/s)
system.mem_ctrls.bw_read::.cpu.dcache.prefetcher      1444781                       # Total read bandwidth from this memory (bytes/s)
system.mem_ctrls.bw_read::total               9072520                       # Total read bandwidth from this memory (bytes/s)
system.mem_ctrls.bw_total::.writebacks         190397                       # Total bandwidth to/from this memory (bytes/s)
system.mem_ctrls.bw_total::.cpu.inst          1394222                       # Total bandwidth to/from this memory (bytes/s)
system.mem_ctrls.bw_total::.cpu.data          6233518                       # Total bandwidth to/from this memory (bytes/s)
system.mem_ctrls.bw_total::.cpu.dcache.prefetcher      1444781                       # Total bandwidth to/from this memory (bytes/s)
system.mem_ctrls.bw_total::total              9262918                       # Total bandwidth to/from this memory (bytes/s)
system.mem_ctrls.bw_write::.writebacks         190397                       # Write bandwidth from this memory (bytes/s)
system.mem_ctrls.bw_write::total               190397                       # Write bandwidth from this memory (bytes/s)
system.mem_ctrls.bytesPerActivate::samples         4198                       # Bytes accessed per row activation
system.mem_ctrls.bytesPerActivate::mean    440.346832                       # Bytes accessed per row activation
system.mem_ctrls.bytesPerActivate::gmean   261.575582                       # Bytes accessed per row activation
system.mem_ctrls.bytesPerActivate::stdev   395.392248                       # Bytes accessed per row activation
system.mem_ctrls.bytesPerActivate::0-127          994     23.68%     23.68% # Bytes accessed per row activation
system.mem_ctrls.bytesPerActivate::128-255         1120     26.68%     50.36% # Bytes accessed per row activation
system.mem_ctrls.bytesPerActivate::256-383          309      7.36%     57.72% # Bytes accessed per row activation
system.mem_ctrls.bytesPerActivate::384-511          222      5.29%     63.01% # Bytes accessed per row activation
system.mem_ctrls.bytesPerActivate::512-639          148      3.53%     66.53% # Bytes accessed per row activation
system.mem_ctrls.bytesPerActivate::640-767          105      2.50%     69.03% # Bytes accessed per row activation
system.mem_ctrls.bytesPerActivate::768-895          117      2.79%     71.82% # Bytes accessed per row activation
system.mem_ctrls.bytesPerActivate::896-1023          161      3.84%     75.66% # Bytes accessed per row activation
system.mem_ctrls.bytesPerActivate::1024-1151         1022     24.34%    100.00% # Bytes accessed per row activation
system.mem_ctrls.bytesPerActivate::total         4198                       # Bytes accessed per row activation
system.mem_ctrls.bytesReadDRAM                1814464                       # Total number of bytes read from DRAM
system.mem_ctrls.bytesReadSys                 1814528                       # Total read bytes from the system interface side
system.mem_ctrls.bytesReadWrQ                      64                       # Total number of bytes read from write queue
system.mem_ctrls.bytesWritten                   36352                       # Total number of bytes written to DRAM
system.mem_ctrls.bytesWrittenSys                38080                       # Total written bytes from the system interface side
system.mem_ctrls.bytes_inst_read::.cpu.inst       278848                       # Number of instructions bytes read from this memory
system.mem_ctrls.bytes_inst_read::total        278848                       # Number of instructions bytes read from this memory
system.mem_ctrls.bytes_read::.cpu.inst         278848                       # Number of bytes read from this memory
system.mem_ctrls.bytes_read::.cpu.data        1246720                       # Number of bytes read from this memory
system.mem_ctrls.bytes_read::.cpu.dcache.prefetcher       288960                       # Number of bytes read from this memory
system.mem_ctrls.bytes_read::total            1814528                       # Number of bytes read from this memory
system.mem_ctrls.bytes_written::.writebacks        38080                       # Number of bytes written to this memory
system.mem_ctrls.bytes_written::total           38080                       # Number of bytes written to this memory
system.mem_ctrls.masterReadAccesses::.cpu.inst         4357                       # Per-master read serviced memory accesses
system.mem_ctrls.masterReadAccesses::.cpu.data        19480                       # Per-master read serviced memory accesses
system.mem_ctrls.masterReadAccesses::.cpu.dcache.prefetcher         4515                       # Per-master read serviced memory accesses
system.mem_ctrls.masterReadAvgLat::.cpu.inst     50043.09                       # Per-master read average memory access latency
system.mem_ctrls.masterReadAvgLat::.cpu.data     36084.60                       # Per-master read average memory access latency
system.mem_ctrls.masterReadAvgLat::.cpu.dcache.prefetcher     46080.19                       # Per-master read average memory access latency
system.mem_ctrls.masterReadBytes::.cpu.inst       278848                       # Per-master bytes read from memory
system.mem_ctrls.masterReadBytes::.cpu.data      1246656                       # Per-master bytes read from memory
system.mem_ctrls.masterReadBytes::.cpu.dcache.prefetcher       288960                       # Per-master bytes read from memory
system.mem_ctrls.masterReadRate::.cpu.inst 1394221.592789421324                       # Per-master bytes read from memory rate (Bytes/sec)
system.mem_ctrls.masterReadRate::.cpu.data 6233197.706207283773                       # Per-master bytes read from memory rate (Bytes/sec)
system.mem_ctrls.masterReadRate::.cpu.dcache.prefetcher 1444780.925279834075                       # Per-master bytes read from memory rate (Bytes/sec)
system.mem_ctrls.masterReadTotalLat::.cpu.inst    218037727                       # Per-master read total memory access latency
system.mem_ctrls.masterReadTotalLat::.cpu.data    702927932                       # Per-master read total memory access latency
system.mem_ctrls.masterReadTotalLat::.cpu.dcache.prefetcher    208052068                       # Per-master read total memory access latency
system.mem_ctrls.masterWriteAccesses::.writebacks          595                       # Per-master write serviced memory accesses
system.mem_ctrls.masterWriteAvgLat::.writebacks 7227274512.18                       # Per-master write average memory access latency
system.mem_ctrls.masterWriteBytes::.writebacks        36352                       # Per-master bytes write to memory
system.mem_ctrls.masterWriteRate::.writebacks 181757.600345281448                       # Per-master bytes write to memory rate (Bytes/sec)
system.mem_ctrls.masterWriteTotalLat::.writebacks 4300228334750                       # Per-master write total memory access latency
system.mem_ctrls.mergedWrBursts                     0                       # Number of DRAM write bursts merged with an existing one
system.mem_ctrls.neitherReadNorWriteReqs            0                       # Number of requests that are neither read nor write
system.mem_ctrls.numRdRetry                         0                       # Number of times read queue was full causing retry
system.mem_ctrls.numReadWriteTurnArounds           34                       # Number of turnarounds from READ to WRITE
system.mem_ctrls.numStayReadState               59480                       # Number of times bus staying in READ state
system.mem_ctrls.numStayWriteState                536                       # Number of times bus staying in WRITE state
system.mem_ctrls.numWrRetry                         0                       # Number of times write queue was full causing retry
system.mem_ctrls.numWriteReadTurnArounds           34                       # Number of turnarounds from WRITE to READ
system.mem_ctrls.num_reads::.cpu.inst            4357                       # Number of read requests responded to by this memory
system.mem_ctrls.num_reads::.cpu.data           19480                       # Number of read requests responded to by this memory
system.mem_ctrls.num_reads::.cpu.dcache.prefetcher         4515                       # Number of read requests responded to by this memory
system.mem_ctrls.num_reads::total               28352                       # Number of read requests responded to by this memory
system.mem_ctrls.num_writes::.writebacks          595                       # Number of write requests responded to by this memory
system.mem_ctrls.num_writes::total                595                       # Number of write requests responded to by this memory
system.mem_ctrls.pageHitRate                    85.38                       # Row buffer hit rate, read and write combined
system.mem_ctrls.peakBW                      12800.00                       # Theoretical peak bandwidth in MiByte/s
system.mem_ctrls.perBankRdBursts::0              1837                       # Per bank write bursts
system.mem_ctrls.perBankRdBursts::1              1685                       # Per bank write bursts
system.mem_ctrls.perBankRdBursts::2              1776                       # Per bank write bursts
system.mem_ctrls.perBankRdBursts::3              1614                       # Per bank write bursts
system.mem_ctrls.perBankRdBursts::4              1931                       # Per bank write bursts
system.mem_ctrls.perBankRdBursts::5              1993                       # Per bank write bursts
system.mem_ctrls.perBankRdBursts::6              2034                       # Per bank write bursts
system.mem_ctrls.perBankRdBursts::7              1720                       # Per bank write bursts
system.mem_ctrls.perBankRdBursts::8              1654                       # Per bank write bursts
system.mem_ctrls.perBankRdBursts::9              1617                       # Per bank write bursts
system.mem_ctrls.perBankRdBursts::10             1751                       # Per bank write bursts
system.mem_ctrls.perBankRdBursts::11             1750                       # Per bank write bursts
system.mem_ctrls.perBankRdBursts::12             1889                       # Per bank write bursts
system.mem_ctrls.perBankRdBursts::13             1654                       # Per bank write bursts
[...]
system.mem_ctrls.wrQLenPdf::26                     35                       # What write queue length does an incoming req see
system.mem_ctrls.wrQLenPdf::27                     34                       # What write queue length does an incoming req see
system.mem_ctrls.wrQLenPdf::28                     34                       # What write queue length does an incoming req see
system.mem_ctrls.wrQLenPdf::29                     34                       # What write queue length does an incoming req see
system.mem_ctrls.wrQLenPdf::30                     34                       # What write queue length does an incoming req see
system.mem_ctrls.wrQLenPdf::31                     34                       # What write queue length does an incoming req see
system.mem_ctrls.wrQLenPdf::32                     35                       # What write queue length does an incoming req see
system.mem_ctrls.wrQLenPdf::33                      0                       # What write queue length does an incoming req see
system.mem_ctrls.wrQLenPdf::34                      0                       # What write queue length does an incoming req see
system.mem_ctrls.wrQLenPdf::35                      0                       # What write queue length does an incoming req see
system.mem_ctrls.wrQLenPdf::36                      0                       # What write queue length does an incoming req see
system.mem_ctrls.wrQLenPdf::37                      0                       # What write queue length does an incoming req see
system.mem_ctrls.wrQLenPdf::38                      0                       # What write queue length does an incoming req see
system.mem_ctrls.wrQLenPdf::39                      0                       # What write queue length does an incoming req see
system.mem_ctrls.wrQLenPdf::40                      0                       # What write queue length does an incoming req see
system.mem_ctrls.wrQLenPdf::41                      0                       # What write queue length does an incoming req see
system.mem_ctrls.wrQLenPdf::42                      0                       # What write queue length does an incoming req see
system.mem_ctrls.wrQLenPdf::43                      0                       # What write queue length does an incoming req see
system.mem_ctrls.wrQLenPdf::44                      0                       # What write queue length does an incoming req see
system.mem_ctrls.wrQLenPdf::45                      0                       # What write queue length does an incoming req see
system.mem_ctrls.wrQLenPdf::46                      0                       # What write queue length does an incoming req see
system.mem_ctrls.wrQLenPdf::47                      0                       # What write queue length does an incoming req see
system.mem_ctrls.wrQLenPdf::48                      0                       # What write queue length does an incoming req see
system.mem_ctrls.wrQLenPdf::49                      0                       # What write queue length does an incoming req see
system.mem_ctrls.wrQLenPdf::50                      0                       # What write queue length does an incoming req see
system.mem_ctrls.wrQLenPdf::51                      0                       # What write queue length does an incoming req see
system.mem_ctrls.wrQLenPdf::52                      0                       # What write queue length does an incoming req see
system.mem_ctrls.wrQLenPdf::53                      0                       # What write queue length does an incoming req see
system.mem_ctrls.wrQLenPdf::54                      0                       # What write queue length does an incoming req see
system.mem_ctrls.wrQLenPdf::55                      0                       # What write queue length does an incoming req see
system.mem_ctrls.wrQLenPdf::56                      0                       # What write queue length does an incoming req see
system.mem_ctrls.wrQLenPdf::57                      0                       # What write queue length does an incoming req see
system.mem_ctrls.wrQLenPdf::58                      0                       # What write queue length does an incoming req see
system.mem_ctrls.wrQLenPdf::59                      0                       # What write queue length does an incoming req see
system.mem_ctrls.wrQLenPdf::60                      0                       # What write queue length does an incoming req see
system.mem_ctrls.wrQLenPdf::61                      0                       # What write queue length does an incoming req see
system.mem_ctrls.wrQLenPdf::62                      0                       # What write queue length does an incoming req see
system.mem_ctrls.wrQLenPdf::63                      0                       # What write queue length does an incoming req see
system.mem_ctrls.writeBursts                      595                       # Number of DRAM write bursts, including those merged in the write queue
system.mem_ctrls.writePktSize::0                    0                       # Write request sizes (log2)
system.mem_ctrls.writePktSize::1                    0                       # Write request sizes (log2)
system.mem_ctrls.writePktSize::2                    0                       # Write request sizes (log2)
system.mem_ctrls.writePktSize::3                    0                       # Write request sizes (log2)
system.mem_ctrls.writePktSize::4                    0                       # Write request sizes (log2)
system.mem_ctrls.writePktSize::5                    0                       # Write request sizes (log2)
system.mem_ctrls.writePktSize::6                  595                       # Write request sizes (log2)
system.mem_ctrls.writeReqs                        595                       # Number of write requests accepted
system.mem_ctrls.writeRowHitRate                73.61                       # Row buffer hit rate for writes
system.mem_ctrls.writeRowHits                     438                       # Number of row buffer hits during writes
system.mem_ctrls_0.actBackEnergy            392048280                       # Energy for active background per rank (pJ)
system.mem_ctrls_0.actEnergy                 19235160                       # Energy for activate commands per rank (pJ)
system.mem_ctrls_0.actPowerDownEnergy      3633797310                       # Energy for active power-down per rank (pJ)
system.mem_ctrls_0.averagePower            259.344341                       # Core power per rank (mW)
system.mem_ctrls_0.memoryStateTime::IDLE    106127500                       # Time in different power states
system.mem_ctrls_0.memoryStateTime::REF     432640000                       # Time in different power states
system.mem_ctrls_0.memoryStateTime::SREF 186942198000                       # Time in different power states
system.mem_ctrls_0.memoryStateTime::PRE_PDN   4080123429                       # Time in different power states
system.mem_ctrls_0.memoryStateTime::ACT     472815737                       # Time in different power states
system.mem_ctrls_0.memoryStateTime::ACT_PDN   7968735834                       # Time in different power states
system.mem_ctrls_0.preBackEnergy             58070400                       # Energy for precharge background per rank (pJ)
system.mem_ctrls_0.preEnergy                 10212345                       # Energy for precharge commands per rank (pJ)
system.mem_ctrls_0.prePowerDownEnergy      1566810720                       # Energy for precharge power-down per rank (pJ)
system.mem_ctrls_0.readEnergy               104172600                       # Energy for read commands per rank (pJ)
system.mem_ctrls_0.refreshEnergy         1022760960.000000                       # Energy for refresh commands per rank (pJ)
system.mem_ctrls_0.selfRefreshEnergy      45059501100                       # Energy for self refresh per rank (pJ)
system.mem_ctrls_0.totalEnergy            51869553045                       # Total energy per rank (pJ)
system.mem_ctrls_0.totalIdleTime         198991013513                       # Total Idle time Per DRAM Rank
system.mem_ctrls_0.writeEnergy                2782260                       # Energy for write commands per rank (pJ)
system.mem_ctrls_1.actBackEnergy            235018980                       # Energy for active background per rank (pJ)
system.mem_ctrls_1.actEnergy                 10795680                       # Energy for activate commands per rank (pJ)
system.mem_ctrls_1.actPowerDownEnergy      1168788990                       # Energy for active power-down per rank (pJ)
system.mem_ctrls_1.averagePower            246.956004                       # Core power per rank (mW)
system.mem_ctrls_1.memoryStateTime::IDLE     42707000                       # Time in different power states
system.mem_ctrls_1.memoryStateTime::REF     145600000                       # Time in different power states
system.mem_ctrls_1.memoryStateTime::SREF 195598773750                       # Time in different power states
system.mem_ctrls_1.memoryStateTime::PRE_PDN   1263734459                       # Time in different power states
system.mem_ctrls_1.memoryStateTime::ACT     388686987                       # Time in different power states
system.mem_ctrls_1.memoryStateTime::ACT_PDN   2563138304                       # Time in different power states
system.mem_ctrls_1.preBackEnergy             23583360                       # Energy for precharge background per rank (pJ)
system.mem_ctrls_1.preEnergy                  5719065                       # Energy for precharge commands per rank (pJ)
system.mem_ctrls_1.prePowerDownEnergy       485281920                       # Energy for precharge power-down per rank (pJ)
system.mem_ctrls_1.readEnergy                98253540                       # Energy for read commands per rank (pJ)
system.mem_ctrls_1.refreshEnergy         344198400.000000                       # Energy for refresh commands per rank (pJ)
system.mem_ctrls_1.selfRefreshEnergy      47019955920                       # Energy for self refresh per rank (pJ)
system.mem_ctrls_1.totalEnergy            49391852955                       # Total energy per rank (pJ)
system.mem_ctrls_1.totalIdleTime         199425397763                       # Total Idle time Per DRAM Rank
system.mem_ctrls_1.writeEnergy                 182700                       # Energy for write commands per rank (pJ)
system.membus.pkt_count_system.l2.mem_side::system.mem_ctrls.port        57475                       # Packet count per connected master and slave (bytes)
system.membus.pkt_count_system.l2.mem_side::total        57475                       # Packet count per connected master and slave (bytes)
system.membus.pkt_count::total                  57475                       # Packet count per connected master and slave (bytes)
system.membus.pkt_size_system.l2.mem_side::system.mem_ctrls.port      1852608                       # Cumulative packet size per connected master and slave (bytes)
system.membus.pkt_size_system.l2.mem_side::total      1852608                       # Cumulative packet size per connected master and slave (bytes)
system.membus.pkt_size::total                 1852608                       # Cumulative packet size per connected master and slave (bytes)
system.membus.pwrStateResidencyTicks::UNDEFINED 200002640500                       # Cumulative time (in ticks) in various power states
system.membus.reqLayer2.occupancy            33509005                       # Layer occupancy (ticks)
system.membus.reqLayer2.utilization               0.0                       # Layer utilization (%)
system.membus.respLayer1.occupancy          149651981                       # Layer occupancy (ticks)
system.membus.respLayer1.utilization              0.1                       # Layer utilization (%)
system.membus.snoopTraffic                          0                       # Total snoop traffic (bytes)
system.membus.snoop_fanout::samples             28352                       # Request fanout histogram
system.membus.snoop_fanout::mean                    0                       # Request fanout histogram
system.membus.snoop_fanout::stdev                   0                       # Request fanout histogram
system.membus.snoop_fanout::underflows              0      0.00%      0.00% # Request fanout histogram
system.membus.snoop_fanout::0                   28352    100.00%    100.00% # Request fanout histogram
system.membus.snoop_fanout::1                       0      0.00%    100.00% # Request fanout histogram
system.membus.snoop_fanout::overflows               0      0.00%    100.00% # Request fanout histogram
system.membus.snoop_fanout::min_value               0                       # Request fanout histogram
system.membus.snoop_fanout::max_value               0                       # Request fanout histogram
system.membus.snoop_fanout::total               28352                       # Request fanout histogram
system.membus.snoop_filter.hit_multi_requests            0                       # Number of requests hitting in the snoop filter with multiple (>1) holders of the requested data.
system.membus.snoop_filter.hit_multi_snoops            0                       # Number of snoops hitting in the snoop filter with multiple (>1) holders of the requested data.
system.membus.snoop_filter.hit_single_requests          771                       # Number of requests hitting in the snoop filter with a single holder of the requested data.
system.membus.snoop_filter.hit_single_snoops            0                       # Number of snoops hitting in the snoop filter with a single holder of the requested data.
system.membus.snoop_filter.tot_requests         29123                       # Total number of requests made to the snoop filter.
system.membus.snoop_filter.tot_snoops               0                       # Total number of snoops made to the snoop filter.
system.membus.snoops                                0                       # Total snoops (count)
system.membus.trans_dist::ReadResp              11060                       # Transaction distribution
system.membus.trans_dist::WritebackDirty          595                       # Transaction distribution
system.membus.trans_dist::CleanEvict              176                       # Transaction distribution
system.membus.trans_dist::ReadExReq             17292                       # Transaction distribution
system.membus.trans_dist::ReadExResp            17292                       # Transaction distribution
system.membus.trans_dist::ReadSharedReq         11060                       # Transaction distribution
system.pwrStateResidencyTicks::UNDEFINED 200002640500                       # Cumulative time (in ticks) in various power states
system.tol2bus.pkt_count_system.cpu.icache.mem_side::system.l2.cpu_side       207640                       # Packet count per connected master and slave (bytes)
system.tol2bus.pkt_count_system.cpu.dcache.mem_side::system.l2.cpu_side       402905                       # Packet count per connected master and slave (bytes)
system.tol2bus.pkt_count::total                610545                       # Packet count per connected master and slave (bytes)
system.tol2bus.pkt_size_system.cpu.icache.mem_side::system.l2.cpu_side      8848384                       # Cumulative packet size per connected master and slave (bytes)
system.tol2bus.pkt_size_system.cpu.dcache.mem_side::system.l2.cpu_side     15796992                       # Cumulative packet size per connected master and slave (bytes)
system.tol2bus.pkt_size::total               24645376                       # Cumulative packet size per connected master and slave (bytes)
system.tol2bus.pwrStateResidencyTicks::UNDEFINED 200002640500                       # Cumulative time (in ticks) in various power states
system.tol2bus.reqLayer0.occupancy          405089854                       # Layer occupancy (ticks)
system.tol2bus.reqLayer0.utilization              0.2                       # Layer utilization (%)
system.tol2bus.respLayer0.occupancy         104081988                       # Layer occupancy (ticks)
system.tol2bus.respLayer0.utilization             0.1                       # Layer utilization (%)
system.tol2bus.respLayer1.occupancy         201965498                       # Layer occupancy (ticks)
system.tol2bus.respLayer1.utilization             0.1                       # Layer utilization (%)
system.tol2bus.snoopTraffic                     38080                       # Total snoop traffic (bytes)
system.tol2bus.snoop_fanout::samples           204798                       # Request fanout histogram
system.tol2bus.snoop_fanout::mean            0.000049                       # Request fanout histogram
system.tol2bus.snoop_fanout::stdev           0.006988                       # Request fanout histogram
system.tol2bus.snoop_fanout::underflows             0      0.00%      0.00% # Request fanout histogram
system.tol2bus.snoop_fanout::0                 204788    100.00%    100.00% # Request fanout histogram
system.tol2bus.snoop_fanout::1                     10      0.00%    100.00% # Request fanout histogram
system.tol2bus.snoop_fanout::2                      0      0.00%    100.00% # Request fanout histogram
system.tol2bus.snoop_fanout::3                      0      0.00%    100.00% # Request fanout histogram
system.tol2bus.snoop_fanout::4                      0      0.00%    100.00% # Request fanout histogram
system.tol2bus.snoop_fanout::overflows              0      0.00%    100.00% # Request fanout histogram
system.tol2bus.snoop_fanout::min_value              0                       # Request fanout histogram
system.tol2bus.snoop_fanout::max_value              1                       # Request fanout histogram
system.tol2bus.snoop_fanout::total             204798                       # Request fanout histogram
system.tol2bus.snoop_filter.hit_multi_requests           10                       # Number of requests hitting in the snoop filter with multiple (>1) holders of the requested data.
system.tol2bus.snoop_filter.hit_multi_snoops            0                       # Number of snoops hitting in the snoop filter with multiple (>1) holders of the requested data.
system.tol2bus.snoop_filter.hit_single_requests       202491                       # Number of requests hitting in the snoop filter with a single holder of the requested data.
system.tol2bus.snoop_filter.hit_single_snoops            0                       # Number of snoops hitting in the snoop filter with a single holder of the requested data.
system.tol2bus.snoop_filter.tot_requests       406518                       # Total number of requests made to the snoop filter.
system.tol2bus.snoop_filter.tot_snoops              0                       # Total number of snoops made to the snoop filter.
system.tol2bus.snoops                             771                       # Total snoops (count)
system.tol2bus.trans_dist::ReadResp            166090                       # Transaction distribution
system.tol2bus.trans_dist::WritebackDirty       112780                       # Transaction distribution
system.tol2bus.trans_dist::WritebackClean        68872                       # Transaction distribution
system.tol2bus.trans_dist::CleanEvict           21610                       # Transaction distribution
system.tol2bus.trans_dist::ReadExReq            37937                       # Transaction distribution
system.tol2bus.trans_dist::ReadExResp           37937                       # Transaction distribution
system.tol2bus.trans_dist::ReadCleanReq         69384                       # Transaction distribution
system.tol2bus.trans_dist::ReadSharedReq        96706                       # Transaction distribution
system.voltage_domain.voltage                       1                       # Voltage in Volts

---------- End Simulation Statistics   ----------
