
---------- Begin Simulation Statistics ----------
final_tick                                81919994500                       # Number of ticks from beginning of simulation (restored from checkpoints and never reset)
host_inst_rate                                 595224                       # Simulator instruction rate (inst/s)
host_mem_usage                                 672948                       # Number of bytes of host memory used
host_op_rate                                  1116036                       # Simulator op (including micro ops) rate (op/s)
host_seconds                                    66.42                       # Real time elapsed on the host
host_tick_rate                             1233273619                       # Simulator tick rate (ticks/s)
sim_freq                                 1000000000000                       # Frequency of simulated ticks
sim_insts                                    39537586                       # Number of instructions simulated
sim_ops                                      74132426                       # Number of ops (including micro ops) simulated
sim_seconds                                  0.081920                       # Number of seconds simulated
sim_ticks                                 81919994500                       # Number of ticks simulated
system.clk_domain.clock                          1000                       # Clock period in ticks
system.cpu.Branches                           8239501                       # Number of branches fetched
system.cpu.apic_clk_domain.clock                 8000                       # Clock period in ticks
system.cpu.committedInsts                    39537586                       # Number of instructions committed
system.cpu.committedOps                      74132426                       # Number of ops (including micro ops) committed
system.cpu.dcache.HardPFReq_avg_mshr_miss_latency::.cpu.dcache.prefetcher 24848.546596                       # average HardPFReq mshr miss latency
system.cpu.dcache.HardPFReq_avg_mshr_miss_latency::total 24848.546596                       # average HardPFReq mshr miss latency
system.cpu.dcache.HardPFReq_mshr_miss_latency::.cpu.dcache.prefetcher   1472922448                       # number of HardPFReq MSHR miss cycles
system.cpu.dcache.HardPFReq_mshr_miss_latency::total   1472922448                       # number of HardPFReq MSHR miss cycles
system.cpu.dcache.HardPFReq_mshr_miss_rate::.cpu.dcache.prefetcher          inf                       # mshr miss rate for HardPFReq accesses
system.cpu.dcache.HardPFReq_mshr_miss_rate::total          inf                       # mshr miss rate for HardPFReq accesses
system.cpu.dcache.HardPFReq_mshr_misses::.cpu.dcache.prefetcher        59276                       # number of HardPFReq MSHR misses
system.cpu.dcache.HardPFReq_mshr_misses::total        59276                       # number of HardPFReq MSHR misses
system.cpu.dcache.ReadReq_accesses::.cpu.data      8769734                       # number of ReadReq accesses(hits+misses)
system.cpu.dcache.ReadReq_accesses::total      8769734                       # number of ReadReq accesses(hits+misses)
system.cpu.dcache.ReadReq_avg_miss_latency::.cpu.data 13060.583504                       # average ReadReq miss latency
system.cpu.dcache.ReadReq_avg_miss_latency::total 13060.583504                       # average ReadReq miss latency
system.cpu.dcache.ReadReq_avg_mshr_miss_latency::.cpu.data 12059.664601                       # average ReadReq mshr miss latency
system.cpu.dcache.ReadReq_avg_mshr_miss_latency::total 12059.664601                       # average ReadReq mshr miss latency
system.cpu.dcache.ReadReq_hits::.cpu.data      7862251                       # number of ReadReq hits
system.cpu.dcache.ReadReq_hits::total         7862251                       # number of ReadReq hits
system.cpu.dcache.ReadReq_miss_latency::.cpu.data  11852257500                       # number of ReadReq miss cycles
system.cpu.dcache.ReadReq_miss_latency::total  11852257500                       # number of ReadReq miss cycles
system.cpu.dcache.ReadReq_miss_rate::.cpu.data     0.103479                       # miss rate for ReadReq accesses
system.cpu.dcache.ReadReq_miss_rate::total     0.103479                       # miss rate for ReadReq accesses
system.cpu.dcache.ReadReq_misses::.cpu.data       907483                       # number of ReadReq misses
system.cpu.dcache.ReadReq_misses::total        907483                       # number of ReadReq misses
system.cpu.dcache.ReadReq_mshr_hits::.cpu.data           27                       # number of ReadReq MSHR hits
system.cpu.dcache.ReadReq_mshr_hits::total           27                       # number of ReadReq MSHR hits
system.cpu.dcache.ReadReq_mshr_miss_latency::.cpu.data  10943615000                       # number of ReadReq MSHR miss cycles
system.cpu.dcache.ReadReq_mshr_miss_latency::total  10943615000                       # number of ReadReq MSHR miss cycles
system.cpu.dcache.ReadReq_mshr_miss_rate::.cpu.data     0.103476                       # mshr miss rate for ReadReq accesses
system.cpu.dcache.ReadReq_mshr_miss_rate::total     0.103476                       # mshr miss rate for ReadReq accesses
system.cpu.dcache.ReadReq_mshr_misses::.cpu.data       907456                       # number of ReadReq MSHR misses
system.cpu.dcache.ReadReq_mshr_misses::total       907456                       # number of ReadReq MSHR misses
system.cpu.dcache.WriteReq_accesses::.cpu.data      2722470                       # number of WriteReq accesses(hits+misses)
system.cpu.dcache.WriteReq_accesses::total      2722470                       # number of WriteReq accesses(hits+misses)
system.cpu.dcache.WriteReq_avg_miss_latency::.cpu.data 35401.759834                       # average WriteReq miss latency
system.cpu.dcache.WriteReq_avg_miss_latency::total 35401.759834                       # average WriteReq miss latency
system.cpu.dcache.WriteReq_avg_mshr_miss_latency::.cpu.data 34311.034338                       # average WriteReq mshr miss latency
system.cpu.dcache.WriteReq_avg_mshr_miss_latency::total 34311.034338                       # average WriteReq mshr miss latency
system.cpu.dcache.WriteReq_hits::.cpu.data      2717640                       # number of WriteReq hits
system.cpu.dcache.WriteReq_hits::total        2717640                       # number of WriteReq hits
system.cpu.dcache.WriteReq_miss_latency::.cpu.data    170990500                       # number of WriteReq miss cycles
system.cpu.dcache.WriteReq_miss_latency::total    170990500                       # number of WriteReq miss cycles
system.cpu.dcache.WriteReq_miss_rate::.cpu.data     0.001774                       # miss rate for WriteReq accesses
system.cpu.dcache.WriteReq_miss_rate::total     0.001774                       # miss rate for WriteReq accesses
system.cpu.dcache.WriteReq_misses::.cpu.data         4830                       # number of WriteReq misses
system.cpu.dcache.WriteReq_misses::total         4830                       # number of WriteReq misses
system.cpu.dcache.WriteReq_mshr_hits::.cpu.data           54                       # number of WriteReq MSHR hits
system.cpu.dcache.WriteReq_mshr_hits::total           54                       # number of WriteReq MSHR hits
system.cpu.dcache.WriteReq_mshr_miss_latency::.cpu.data    163869500                       # number of WriteReq MSHR miss cycles
system.cpu.dcache.WriteReq_mshr_miss_latency::total    163869500                       # number of WriteReq MSHR miss cycles
system.cpu.dcache.WriteReq_mshr_miss_rate::.cpu.data     0.001754                       # mshr miss rate for WriteReq accesses
system.cpu.dcache.WriteReq_mshr_miss_rate::total     0.001754                       # mshr miss rate for WriteReq accesses
system.cpu.dcache.WriteReq_mshr_misses::.cpu.data         4776                       # number of WriteReq MSHR misses
system.cpu.dcache.WriteReq_mshr_misses::total         4776                       # number of WriteReq MSHR misses
system.cpu.dcache.avg_blocked_cycles::no_mshrs          nan                       # average number of cycles each access was blocked
system.cpu.dcache.avg_blocked_cycles::no_targets          nan                       # average number of cycles each access was blocked
system.cpu.dcache.blocked::no_mshrs                 0                       # number of cycles access was blocked
system.cpu.dcache.blocked::no_targets               0                       # number of cycles access was blocked
system.cpu.dcache.blocked_cycles::no_mshrs            0                       # number of cycles access was blocked
system.cpu.dcache.blocked_cycles::no_targets            0                       # number of cycles access was blocked
system.cpu.dcache.demand_accesses::.cpu.data     11492204                       # number of demand (read+write) accesses
system.cpu.dcache.demand_accesses::total     11492204                       # number of demand (read+write) accesses
system.cpu.dcache.demand_avg_miss_latency::.cpu.data 13178.862956                       # average overall miss latency
system.cpu.dcache.demand_avg_miss_latency::total 13178.862956                       # average overall miss latency
system.cpu.dcache.demand_avg_mshr_miss_latency::.cpu.data 12176.161875                       # average overall mshr miss latency
system.cpu.dcache.demand_avg_mshr_miss_latency::total 12176.161875                       # average overall mshr miss latency
system.cpu.dcache.demand_hits::.cpu.data     10579891                       # number of demand (read+write) hits
system.cpu.dcache.demand_hits::total         10579891                       # number of demand (read+write) hits
system.cpu.dcache.demand_miss_latency::.cpu.data  12023248000                       # number of demand (read+write) miss cycles
system.cpu.dcache.demand_miss_latency::total  12023248000                       # number of demand (read+write) miss cycles
system.cpu.dcache.demand_miss_rate::.cpu.data     0.079385                       # miss rate for demand accesses
system.cpu.dcache.demand_miss_rate::total     0.079385                       # miss rate for demand accesses
system.cpu.dcache.demand_misses::.cpu.data       912313                       # number of demand (read+write) misses
system.cpu.dcache.demand_misses::total         912313                       # number of demand (read+write) misses
system.cpu.dcache.demand_mshr_hits::.cpu.data           81                       # number of demand (read+write) MSHR hits
system.cpu.dcache.demand_mshr_hits::total           81                       # number of demand (read+write) MSHR hits
system.cpu.dcache.demand_mshr_miss_latency::.cpu.data  11107484500                       # number of demand (read+write) MSHR miss cycles
system.cpu.dcache.demand_mshr_miss_latency::total  11107484500                       # number of demand (read+write) MSHR miss cycles
system.cpu.dcache.demand_mshr_miss_rate::.cpu.data     0.079378                       # mshr miss rate for demand accesses
system.cpu.dcache.demand_mshr_miss_rate::total     0.079378                       # mshr miss rate for demand accesses
system.cpu.dcache.demand_mshr_misses::.cpu.data       912232                       # number of demand (read+write) MSHR misses
system.cpu.dcache.demand_mshr_misses::total       912232                       # number of demand (read+write) MSHR misses
system.cpu.dcache.overall_accesses::.cpu.data     11492204                       # number of overall (read+write) accesses
system.cpu.dcache.overall_accesses::total     11492204                       # number of overall (read+write) accesses
system.cpu.dcache.overall_avg_miss_latency::.cpu.data 13178.862956                       # average overall miss latency
system.cpu.dcache.overall_avg_miss_latency::total 13178.862956                       # average overall miss latency
system.cpu.dcache.overall_avg_mshr_miss_latency::.cpu.data 12176.161875                       # average overall mshr miss latency
system.cpu.dcache.overall_avg_mshr_miss_latency::.cpu.dcache.prefetcher 24848.546596                       # average overall mshr miss latency
system.cpu.dcache.overall_avg_mshr_miss_latency::total 12949.360116                       # average overall mshr miss latency
system.cpu.dcache.overall_hits::.cpu.data     10579891                       # number of overall hits
system.cpu.dcache.overall_hits::total        10579891                       # number of overall hits
system.cpu.dcache.overall_miss_latency::.cpu.data  12023248000                       # number of overall miss cycles
system.cpu.dcache.overall_miss_latency::total  12023248000                       # number of overall miss cycles
system.cpu.dcache.overall_miss_rate::.cpu.data     0.079385                       # miss rate for overall accesses
system.cpu.dcache.overall_miss_rate::total     0.079385                       # miss rate for overall accesses
system.cpu.dcache.overall_misses::.cpu.data       912313                       # number of overall misses
system.cpu.dcache.overall_misses::total        912313                       # number of overall misses
system.cpu.dcache.overall_mshr_hits::.cpu.data           81                       # number of overall MSHR hits
system.cpu.dcache.overall_mshr_hits::total           81                       # number of overall MSHR hits
system.cpu.dcache.overall_mshr_miss_latency::.cpu.data  11107484500                       # number of overall MSHR miss cycles
system.cpu.dcache.overall_mshr_miss_latency::.cpu.dcache.prefetcher   1472922448                       # number of overall MSHR miss cycles
system.cpu.dcache.overall_mshr_miss_latency::total  12580406948                       # number of overall MSHR miss cycles
system.cpu.dcache.overall_mshr_miss_rate::.cpu.data     0.079378                       # mshr miss rate for overall accesses
system.cpu.dcache.overall_mshr_miss_rate::.cpu.dcache.prefetcher          inf                       # mshr miss rate for overall accesses
system.cpu.dcache.overall_mshr_miss_rate::total     0.084536                       # mshr miss rate for overall accesses
system.cpu.dcache.overall_mshr_misses::.cpu.data       912232                       # number of overall MSHR misses
system.cpu.dcache.overall_mshr_misses::.cpu.dcache.prefetcher        59276                       # number of overall MSHR misses
system.cpu.dcache.overall_mshr_misses::total       971508                       # number of overall MSHR misses
system.cpu.dcache.prefetcher.num_hwpf_issued      5479081                       # number of hwpf issued
system.cpu.dcache.prefetcher.pfBufferHit        20705                       # number of redundant prefetches already in prefetch queue
system.cpu.dcache.prefetcher.pfIdentified      5500475                       # number of prefetch candidates identified
system.cpu.dcache.prefetcher.pfInCache              0                       # number of redundant prefetches already in cache/mshr dropped
system.cpu.dcache.prefetcher.pfRemovedFull            0                       # number of prefetches dropped due to prefetch queue size
system.cpu.dcache.prefetcher.pfSpanPage        225109                       # number of prefetches not generated due to page crossing
system.cpu.dcache.prefetcher.pwrStateResidencyTicks::UNDEFINED  81919994500                       # Cumulative time (in ticks) in various power states
system.cpu.dcache.pwrStateResidencyTicks::UNDEFINED  81919994500                       # Cumulative time (in ticks) in various power states
system.cpu.dcache.replacements                 970484                       # number of replacements
system.cpu.dcache.tags.age_task_id_blocks_1022::0           12                       # Occupied blocks per task id
system.cpu.dcache.tags.age_task_id_blocks_1022::1           38                       # Occupied blocks per task id
system.cpu.dcache.tags.age_task_id_blocks_1022::2          152                       # Occupied blocks per task id
system.cpu.dcache.tags.age_task_id_blocks_1022::3          612                       # Occupied blocks per task id
system.cpu.dcache.tags.age_task_id_blocks_1024::0           74                       # Occupied blocks per task id
system.cpu.dcache.tags.age_task_id_blocks_1024::1           82                       # Occupied blocks per task id
system.cpu.dcache.tags.age_task_id_blocks_1024::2            5                       # Occupied blocks per task id
system.cpu.dcache.tags.age_task_id_blocks_1024::3           49                       # Occupied blocks per task id
system.cpu.dcache.tags.avg_refs             11.890174                       # Average number of references to valid blocks.
system.cpu.dcache.tags.data_accesses         23955916                       # Number of data accesses
system.cpu.dcache.tags.occ_blocks::.cpu.data   820.481439                       # Average occupied blocks per requestor
system.cpu.dcache.tags.occ_blocks::.cpu.dcache.prefetcher   202.504489                       # Average occupied blocks per requestor
system.cpu.dcache.tags.occ_percent::.cpu.data     0.801251                       # Average percentage of cache occupancy
system.cpu.dcache.tags.occ_percent::.cpu.dcache.prefetcher     0.197758                       # Average percentage of cache occupancy
system.cpu.dcache.tags.occ_percent::total     0.999010                       # Average percentage of cache occupancy
system.cpu.dcache.tags.occ_task_id_blocks::1022          814                       # Occupied blocks per task id
system.cpu.dcache.tags.occ_task_id_blocks::1024          210                       # Occupied blocks per task id
system.cpu.dcache.tags.occ_task_id_percent::1022     0.794922                       # Percentage of cache occupancy per task id
system.cpu.dcache.tags.occ_task_id_percent::1024     0.205078                       # Percentage of cache occupancy per task id
system.cpu.dcache.tags.pwrStateResidencyTicks::UNDEFINED  81919994500                       # Cumulative time (in ticks) in various power states
system.cpu.dcache.tags.sampled_refs            971508                       # Sample count of references to valid blocks.
system.cpu.dcache.tags.tag_accesses          23955916                       # Number of tag accesses
system.cpu.dcache.tags.tagsinuse          1022.985928                       # Cycle average of tags in use
system.cpu.dcache.tags.total_refs            11551399                       # Total number of references to valid blocks.
system.cpu.dcache.tags.warmup_cycle            174500                       # Cycle when the warmup percentage was hit.
system.cpu.dcache.unused_prefetches             27553                       # number of HardPF blocks evicted w/o reference
system.cpu.dcache.writebacks::.writebacks       797013                       # number of writebacks
system.cpu.dcache.writebacks::total            797013                       # number of writebacks
system.cpu.dtb.pwrStateResidencyTicks::UNDEFINED  81919994500                       # Cumulative time (in ticks) in various power states
system.cpu.dtb.rdAccesses                     8769734                       # TLB accesses on read requests
system.cpu.dtb.rdMisses                           236                       # TLB misses on read requests
system.cpu.dtb.walker.pwrStateResidencyTicks::UNDEFINED  81919994500                       # Cumulative time (in ticks) in various power states
system.cpu.dtb.wrAccesses                     2722470                       # TLB accesses on write requests
system.cpu.dtb.wrMisses                            98                       # TLB misses on write requests
system.cpu.dtb_walker_cache.avg_blocked_cycles::no_mshrs          nan                       # average number of cycles each access was blocked
system.cpu.dtb_walker_cache.avg_blocked_cycles::no_targets          nan                       # average number of cycles each access was blocked
system.cpu.dtb_walker_cache.blocked::no_mshrs            0                       # number of cycles access was blocked
system.cpu.dtb_walker_cache.blocked::no_targets            0                       # number of cycles access was blocked
system.cpu.dtb_walker_cache.blocked_cycles::no_mshrs            0                       # number of cycles access was blocked
system.cpu.dtb_walker_cache.blocked_cycles::no_targets            0                       # number of cycles access was blocked
system.cpu.dtb_walker_cache.pwrStateResidencyTicks::UNDEFINED  81919994500                       # Cumulative time (in ticks) in various power states
system.cpu.dtb_walker_cache.replacements            0                       # number of replacements
system.cpu.dtb_walker_cache.tags.avg_refs          nan                       # Average number of references to valid blocks.
system.cpu.dtb_walker_cache.tags.data_accesses            0                       # Number of data accesses
system.cpu.dtb_walker_cache.tags.pwrStateResidencyTicks::UNDEFINED  81919994500                       # Cumulative time (in ticks) in various power states
system.cpu.dtb_walker_cache.tags.sampled_refs            0                       # Sample count of references to valid blocks.
system.cpu.dtb_walker_cache.tags.tag_accesses            0                       # Number of tag accesses
system.cpu.dtb_walker_cache.tags.tagsinuse            0                       # Cycle average of tags in use
system.cpu.dtb_walker_cache.tags.total_refs            0                       # Total number of references to valid blocks.
system.cpu.dtb_walker_cache.tags.warmup_cycle            0                       # Cycle when the warmup percentage was hit.
system.cpu.icache.ReadReq_accesses::.cpu.inst     59230587                       # number of ReadReq accesses(hits+misses)
system.cpu.icache.ReadReq_accesses::total     59230587                       # number of ReadReq accesses(hits+misses)
system.cpu.icache.ReadReq_avg_miss_latency::.cpu.inst 86493.557978                       # average ReadReq miss latency
system.cpu.icache.ReadReq_avg_miss_latency::total 86493.557978                       # average ReadReq miss latency
system.cpu.icache.ReadReq_avg_mshr_miss_latency::.cpu.inst 85493.557978                       # average ReadReq mshr miss latency
system.cpu.icache.ReadReq_avg_mshr_miss_latency::total 85493.557978                       # average ReadReq mshr miss latency
system.cpu.icache.ReadReq_hits::.cpu.inst     59229578                       # number of ReadReq hits
system.cpu.icache.ReadReq_hits::total        59229578                       # number of ReadReq hits
system.cpu.icache.ReadReq_miss_latency::.cpu.inst     87272000                       # number of ReadReq miss cycles
system.cpu.icache.ReadReq_miss_latency::total     87272000                       # number of ReadReq miss cycles
system.cpu.icache.ReadReq_miss_rate::.cpu.inst     0.000017                       # miss rate for ReadReq accesses
system.cpu.icache.ReadReq_miss_rate::total     0.000017                       # miss rate for ReadReq accesses
system.cpu.icache.ReadReq_misses::.cpu.inst         1009                       # number of ReadReq misses
system.cpu.icache.ReadReq_misses::total          1009                       # number of ReadReq misses
system.cpu.icache.ReadReq_mshr_miss_latency::.cpu.inst     86263000                       # number of ReadReq MSHR miss cycles
system.cpu.icache.ReadReq_mshr_miss_latency::total     86263000                       # number of ReadReq MSHR miss cycles
system.cpu.icache.ReadReq_mshr_miss_rate::.cpu.inst     0.000017                       # mshr miss rate for ReadReq accesses
system.cpu.icache.ReadReq_mshr_miss_rate::total     0.000017                       # mshr miss rate for ReadReq accesses
system.cpu.icache.ReadReq_mshr_misses::.cpu.inst         1009                       # number of ReadReq MSHR misses
system.cpu.icache.ReadReq_mshr_misses::total         1009                       # number of ReadReq MSHR misses
system.cpu.icache.avg_blocked_cycles::no_mshrs          nan                       # average number of cycles each access was blocked
system.cpu.icache.avg_blocked_cycles::no_targets          nan                       # average number of cycles each access was blocked
system.cpu.icache.blocked::no_mshrs                 0                       # number of cycles access was blocked
system.cpu.icache.blocked::no_targets               0                       # number of cycles access was blocked
system.cpu.icache.blocked_cycles::no_mshrs            0                       # number of cycles access was blocked
system.cpu.icache.blocked_cycles::no_targets            0                       # number of cycles access was blocked
system.cpu.icache.demand_accesses::.cpu.inst     59230587                       # number of demand (read+write) accesses
system.cpu.icache.demand_accesses::total     59230587                       # number of demand (read+write) accesses
system.cpu.icache.demand_avg_miss_latency::.cpu.inst 86493.557978                       # average overall miss latency
system.cpu.icache.demand_avg_miss_latency::total 86493.557978                       # average overall miss latency
system.cpu.icache.demand_avg_mshr_miss_latency::.cpu.inst 85493.557978                       # average overall mshr miss latency
system.cpu.icache.demand_avg_mshr_miss_latency::total 85493.557978                       # average overall mshr miss latency
system.cpu.icache.demand_hits::.cpu.inst     59229578                       # number of demand (read+write) hits
system.cpu.icache.demand_hits::total         59229578                       # number of demand (read+write) hits
system.cpu.icache.demand_miss_latency::.cpu.inst     87272000                       # number of demand (read+write) miss cycles
system.cpu.icache.demand_miss_latency::total     87272000                       # number of demand (read+write) miss cycles
system.cpu.icache.demand_miss_rate::.cpu.inst     0.000017                       # miss rate for demand accesses
system.cpu.icache.demand_miss_rate::total     0.000017                       # miss rate for demand accesses
system.cpu.icache.demand_misses::.cpu.inst         1009                       # number of demand (read+write) misses
system.cpu.icache.demand_misses::total           1009                       # number of demand (read+write) misses
system.cpu.icache.demand_mshr_miss_latency::.cpu.inst     86263000                       # number of demand (read+write) MSHR miss cycles
system.cpu.icache.demand_mshr_miss_latency::total     86263000                       # number of demand (read+write) MSHR miss cycles
system.cpu.icache.demand_mshr_miss_rate::.cpu.inst     0.000017                       # mshr miss rate for demand accesses
system.cpu.icache.demand_mshr_miss_rate::total     0.000017                       # mshr miss rate for demand accesses
system.cpu.icache.demand_mshr_misses::.cpu.inst         1009                       # number of demand (read+write) MSHR misses
system.cpu.icache.demand_mshr_misses::total         1009                       # number of demand (read+write) MSHR misses
system.cpu.icache.overall_accesses::.cpu.inst     59230587                       # number of overall (read+write) accesses
system.cpu.icache.overall_accesses::total     59230587                       # number of overall (read+write) accesses
system.cpu.icache.overall_avg_miss_latency::.cpu.inst 86493.557978                       # average overall miss latency
system.cpu.icache.overall_avg_miss_latency::total 86493.557978                       # average overall miss latency
system.cpu.icache.overall_avg_mshr_miss_latency::.cpu.inst 85493.557978                       # average overall mshr miss latency
system.cpu.icache.overall_avg_mshr_miss_latency::total 85493.557978                       # average overall mshr miss latency
system.cpu.icache.overall_hits::.cpu.inst     59229578                       # number of overall hits
system.cpu.icache.overall_hits::total        59229578                       # number of overall hits
system.cpu.icache.overall_miss_latency::.cpu.inst     87272000                       # number of overall miss cycles
system.cpu.icache.overall_miss_latency::total     87272000                       # number of overall miss cycles
system.cpu.icache.overall_miss_rate::.cpu.inst     0.000017                       # miss rate for overall accesses
system.cpu.icache.overall_miss_rate::total     0.000017                       # miss rate for overall accesses
system.cpu.icache.overall_misses::.cpu.inst         1009                       # number of overall misses
system.cpu.icache.overall_misses::total          1009                       # number of overall misses
system.cpu.icache.overall_mshr_miss_latency::.cpu.inst     86263000                       # number of overall MSHR miss cycles
system.cpu.icache.overall_mshr_miss_latency::total     86263000                       # number of overall MSHR miss cycles
system.cpu.icache.overall_mshr_miss_rate::.cpu.inst     0.000017                       # mshr miss rate for overall accesses
system.cpu.icache.overall_mshr_miss_rate::total     0.000017                       # mshr miss rate for overall accesses
system.cpu.icache.overall_mshr_misses::.cpu.inst         1009                       # number of overall MSHR misses
system.cpu.icache.overall_mshr_misses::total         1009                       # number of overall MSHR misses
system.cpu.icache.pwrStateResidencyTicks::UNDEFINED  81919994500                       # Cumulative time (in ticks) in various power states
system.cpu.icache.replacements                    512                       # number of replacements
system.cpu.icache.tags.age_task_id_blocks_1024::0           52                       # Occupied blocks per task id
system.cpu.icache.tags.age_task_id_blocks_1024::1           29                       # Occupied blocks per task id
system.cpu.icache.tags.age_task_id_blocks_1024::3            2                       # Occupied blocks per task id
system.cpu.icache.tags.age_task_id_blocks_1024::4          414                       # Occupied blocks per task id
system.cpu.icache.tags.avg_refs          58702.266601                       # Average number of references to valid blocks.
system.cpu.icache.tags.data_accesses        118462183                       # Number of data accesses
system.cpu.icache.tags.occ_blocks::.cpu.inst   490.701472                       # Average occupied blocks per requestor
system.cpu.icache.tags.occ_percent::.cpu.inst     0.958401                       # Average percentage of cache occupancy
system.cpu.icache.tags.occ_percent::total     0.958401                       # Average percentage of cache occupancy
system.cpu.icache.tags.occ_task_id_blocks::1024          497                       # Occupied blocks per task id
system.cpu.icache.tags.occ_task_id_percent::1024     0.970703                       # Percentage of cache occupancy per task id
system.cpu.icache.tags.pwrStateResidencyTicks::UNDEFINED  81919994500                       # Cumulative time (in ticks) in various power states
system.cpu.icache.tags.sampled_refs              1009                       # Sample count of references to valid blocks.
system.cpu.icache.tags.tag_accesses         118462183                       # Number of tag accesses
system.cpu.icache.tags.tagsinuse           490.701472                       # Cycle average of tags in use
system.cpu.icache.tags.total_refs            59230587                       # Total number of references to valid blocks.
system.cpu.icache.tags.warmup_cycle             87500                       # Cycle when the warmup percentage was hit.
system.cpu.icache.writebacks::.writebacks          512                       # number of writebacks
system.cpu.icache.writebacks::total               512                       # number of writebacks
system.cpu.idle_fraction                     0.000000                       # Percentage of idle cycles
system.cpu.interrupts.pwrStateResidencyTicks::UNDEFINED  81919994500                       # Cumulative time (in ticks) in various power states
system.cpu.itb.pwrStateResidencyTicks::UNDEFINED  81919994500                       # Cumulative time (in ticks) in various power states
system.cpu.itb.rdAccesses                           0                       # TLB accesses on read requests
system.cpu.itb.rdMisses                             0                       # TLB misses on read requests
system.cpu.itb.walker.pwrStateResidencyTicks::UNDEFINED  81919994500                       # Cumulative time (in ticks) in various power states
system.cpu.itb.wrAccesses                    59230587                       # TLB accesses on write requests
system.cpu.itb.wrMisses                            85                       # TLB misses on write requests
system.cpu.itb_walker_cache.avg_blocked_cycles::no_mshrs          nan                       # average number of cycles each access was blocked
system.cpu.itb_walker_cache.avg_blocked_cycles::no_targets          nan                       # average number of cycles each access was blocked
system.cpu.itb_walker_cache.blocked::no_mshrs            0                       # number of cycles access was blocked
system.cpu.itb_walker_cache.blocked::no_targets            0                       # number of cycles access was blocked
system.cpu.itb_walker_cache.blocked_cycles::no_mshrs            0                       # number of cycles access was blocked
system.cpu.itb_walker_cache.blocked_cycles::no_targets            0                       # number of cycles access was blocked
system.cpu.itb_walker_cache.pwrStateResidencyTicks::UNDEFINED  81919994500                       # Cumulative time (in ticks) in various power states
system.cpu.itb_walker_cache.replacements            0                       # number of replacements
system.cpu.itb_walker_cache.tags.avg_refs          nan                       # Average number of references to valid blocks.
system.cpu.itb_walker_cache.tags.data_accesses            0                       # Number of data accesses
system.cpu.itb_walker_cache.tags.pwrStateResidencyTicks::UNDEFINED  81919994500                       # Cumulative time (in ticks) in various power states
system.cpu.itb_walker_cache.tags.sampled_refs            0                       # Sample count of references to valid blocks.
system.cpu.itb_walker_cache.tags.tag_accesses            0                       # Number of tag accesses
system.cpu.itb_walker_cache.tags.tagsinuse            0                       # Cycle average of tags in use
system.cpu.itb_walker_cache.tags.total_refs            0                       # Total number of references to valid blocks.
system.cpu.itb_walker_cache.tags.warmup_cycle            0                       # Cycle when the warmup percentage was hit.
system.cpu.not_idle_fraction                 1.000000                       # Percentage of non-idle cycles
system.cpu.numCycles                        163839989                       # number of cpu cycles simulated
system.cpu.numWorkItemsCompleted                    0                       # number of work items this cpu completed
system.cpu.numWorkItemsStarted                      0                       # number of work items this cpu started
system.cpu.num_busy_cycles               163839988.998000                       # Number of busy cycles
system.cpu.num_cc_register_reads             47473855                       # number of times the CC registers were read
system.cpu.num_cc_register_writes            26665422                       # number of times the CC registers were written
system.cpu.num_conditional_control_insts      7479516                       # number of instructions that are conditional controls
system.cpu.num_fp_alu_accesses                  56745                       # Number of float alu accesses
system.cpu.num_fp_insts                         56745                       # number of float instructions
system.cpu.num_fp_register_reads                38875                       # number of times the floating registers were read
system.cpu.num_fp_register_writes               25858                       # number of times the floating registers were written
system.cpu.num_func_calls                      448726                       # number of times a function call or return occured
system.cpu.num_idle_cycles                   0.002000                       # Number of idle cycles
system.cpu.num_int_alu_accesses              74127040                       # Number of integer alu accesses
system.cpu.num_int_insts                     74127040                       # number of integer instructions
system.cpu.num_int_register_reads           140864614                       # number of times the integer registers were read
system.cpu.num_int_register_writes           63148396                       # number of times the integer registers were written
system.cpu.num_load_insts                     8769727                       # Number of load instructions
system.cpu.num_mem_refs                      11492196                       # number of memory refs
system.cpu.num_store_insts                    2722469                       # Number of store instructions
system.cpu.num_vec_alu_accesses                     0                       # Number of vector alu accesses
system.cpu.num_vec_insts                            0                       # number of vector instructions
system.cpu.num_vec_register_reads                   0                       # number of times the vector registers were read
system.cpu.num_vec_register_writes                  0                       # number of times the vector registers were written
system.cpu.op_class::No_OpClass                  2134      0.00%      0.00% # Class of executed instruction
system.cpu.op_class::IntAlu                  62630537     84.48%     84.49% # Class of executed instruction
system.cpu.op_class::IntMult                     1641      0.00%     84.49% # Class of executed instruction
system.cpu.op_class::IntDiv                      1555      0.00%     84.49% # Class of executed instruction
system.cpu.op_class::FloatAdd                     238      0.00%     84.49% # Class of executed instruction
system.cpu.op_class::FloatCmp                       0      0.00%     84.49% # Class of executed instruction
system.cpu.op_class::FloatCvt                     400      0.00%     84.49% # Class of executed instruction
system.cpu.op_class::FloatMult                      0      0.00%     84.49% # Class of executed instruction
system.cpu.op_class::FloatMultAcc                   0      0.00%     84.49% # Class of executed instruction
system.cpu.op_class::FloatDiv                       0      0.00%     84.49% # Class of executed instruction
system.cpu.op_class::FloatMisc                      0      0.00%     84.49% # Class of executed instruction
system.cpu.op_class::FloatSqrt                      0      0.00%     84.49% # Class of executed instruction
system.cpu.op_class::SimdAdd                      552      0.00%     84.49% # Class of executed instruction
system.cpu.op_class::SimdAddAcc                     0      0.00%     84.49% # Class of executed instruction
system.cpu.op_class::SimdAlu                      795      0.00%     84.49% # Class of executed instruction
system.cpu.op_class::SimdCmp                        0      0.00%     84.49% # Class of executed instruction
system.cpu.op_class::SimdCvt                     1242      0.00%     84.50% # Class of executed instruction
system.cpu.op_class::SimdMisc                     813      0.00%     84.50% # Class of executed instruction
system.cpu.op_class::SimdMult                       0      0.00%     84.50% # Class of executed instruction
system.cpu.op_class::SimdMultAcc                    0      0.00%     84.50% # Class of executed instruction
system.cpu.op_class::SimdShift                    323      0.00%     84.50% # Class of executed instruction
system.cpu.op_class::SimdShiftAcc                   0      0.00%     84.50% # Class of executed instruction
system.cpu.op_class::SimdDiv                        0      0.00%     84.50% # Class of executed instruction
system.cpu.op_class::SimdSqrt                       0      0.00%     84.50% # Class of executed instruction
system.cpu.op_class::SimdFloatAdd                   0      0.00%     84.50% # Class of executed instruction
system.cpu.op_class::SimdFloatAlu                   0      0.00%     84.50% # Class of executed instruction
system.cpu.op_class::SimdFloatCmp                   0      0.00%     84.50% # Class of executed instruction
system.cpu.op_class::SimdFloatCvt                   0      0.00%     84.50% # Class of executed instruction
system.cpu.op_class::SimdFloatDiv                   0      0.00%     84.50% # Class of executed instruction
system.cpu.op_class::SimdFloatMisc                  0      0.00%     84.50% # Class of executed instruction
system.cpu.op_class::SimdFloatMult                  0      0.00%     84.50% # Class of executed instruction
system.cpu.op_class::SimdFloatMultAcc               0      0.00%     84.50% # Class of executed instruction
system.cpu.op_class::SimdFloatSqrt                  0      0.00%     84.50% # Class of executed instruction
system.cpu.op_class::SimdReduceAdd                  0      0.00%     84.50% # Class of executed instruction
system.cpu.op_class::SimdReduceAlu                  0      0.00%     84.50% # Class of executed instruction
system.cpu.op_class::SimdReduceCmp                  0      0.00%     84.50% # Class of executed instruction
system.cpu.op_class::SimdFloatReduceAdd             0      0.00%     84.50% # Class of executed instruction
system.cpu.op_class::SimdFloatReduceCmp             0      0.00%     84.50% # Class of executed instruction
system.cpu.op_class::SimdAes                        0      0.00%     84.50% # Class of executed instruction
system.cpu.op_class::SimdAesMix                     0      0.00%     84.50% # Class of executed instruction
system.cpu.op_class::SimdSha1Hash                   0      0.00%     84.50% # Class of executed instruction
system.cpu.op_class::SimdSha1Hash2                  0      0.00%     84.50% # Class of executed instruction
system.cpu.op_class::SimdSha256Hash                 0      0.00%     84.50% # Class of executed instruction
system.cpu.op_class::SimdSha256Hash2                0      0.00%     84.50% # Class of executed instruction
system.cpu.op_class::SimdShaSigma2                  0      0.00%     84.50% # Class of executed instruction
system.cpu.op_class::SimdShaSigma3                  0      0.00%     84.50% # Class of executed instruction
system.cpu.op_class::SimdPredAlu                    0      0.00%     84.50% # Class of executed instruction
system.cpu.op_class::MemRead                  8747213     11.80%     96.30% # Class of executed instruction
system.cpu.op_class::MemWrite                 2692669      3.63%     99.93% # Class of executed instruction
system.cpu.op_class::FloatMemRead               22514      0.03%     99.96% # Class of executed instruction
system.cpu.op_class::FloatMemWrite              29800      0.04%    100.00% # Class of executed instruction
system.cpu.op_class::IprAccess                      0      0.00%    100.00% # Class of executed instruction
system.cpu.op_class::InstPrefetch                   0      0.00%    100.00% # Class of executed instruction
system.cpu.op_class::total                   74132426                       # Class of executed instruction
system.cpu.pwrStateResidencyTicks::ON     81919994500                       # Cumulative time (in ticks) in various power states
system.cpu.workload.numSyscalls                    59                       # Number of system calls
system.cpu_clk_domain.clock                       500                       # Clock period in ticks
system.cpu_voltage_domain.voltage                   1                       # Voltage in Volts
system.l2.ReadCleanReq_accesses::.cpu.inst         1009                       # number of ReadCleanReq accesses(hits+misses)
system.l2.ReadCleanReq_accesses::total           1009                       # number of ReadCleanReq accesses(hits+misses)
system.l2.ReadCleanReq_avg_miss_latency::.cpu.inst 88214.360587                       # average ReadCleanReq miss latency
system.l2.ReadCleanReq_avg_miss_latency::total 88214.360587                       # average ReadCleanReq miss latency
system.l2.ReadCleanReq_avg_mshr_miss_latency::.cpu.inst 78214.360587                       # average ReadCleanReq mshr miss latency
system.l2.ReadCleanReq_avg_mshr_miss_latency::total 78214.360587                       # average ReadCleanReq mshr miss latency
system.l2.ReadCleanReq_hits::.cpu.inst             55                       # number of ReadCleanReq hits
system.l2.ReadCleanReq_hits::total                 55                       # number of ReadCleanReq hits
system.l2.ReadCleanReq_miss_latency::.cpu.inst     84156500                       # number of ReadCleanReq miss cycles
system.l2.ReadCleanReq_miss_latency::total     84156500                       # number of ReadCleanReq miss cycles
system.l2.ReadCleanReq_miss_rate::.cpu.inst     0.945491                       # miss rate for ReadCleanReq accesses
system.l2.ReadCleanReq_miss_rate::total      0.945491                       # miss rate for ReadCleanReq accesses
system.l2.ReadCleanReq_misses::.cpu.inst          954                       # number of ReadCleanReq misses
system.l2.ReadCleanReq_misses::total              954                       # number of ReadCleanReq misses
system.l2.ReadCleanReq_mshr_miss_latency::.cpu.inst     74616500                       # number of ReadCleanReq MSHR miss cycles
system.l2.ReadCleanReq_mshr_miss_latency::total     74616500                       # number of ReadCleanReq MSHR miss cycles
system.l2.ReadCleanReq_mshr_miss_rate::.cpu.inst     0.945491                       # mshr miss rate for ReadCleanReq accesses
system.l2.ReadCleanReq_mshr_miss_rate::total     0.945491                       # mshr miss rate for ReadCleanReq accesses
system.l2.ReadCleanReq_mshr_misses::.cpu.inst          954                       # number of ReadCleanReq MSHR misses
system.l2.ReadCleanReq_mshr_misses::total          954                       # number of ReadCleanReq MSHR misses
system.l2.ReadExReq_accesses::.cpu.data          4776                       # number of ReadExReq accesses(hits+misses)
system.l2.ReadExReq_accesses::total              4776                       # number of ReadExReq accesses(hits+misses)
system.l2.ReadExReq_avg_miss_latency::.cpu.data 92494.514107                       # average ReadExReq miss latency
system.l2.ReadExReq_avg_miss_latency::total 92494.514107                       # average ReadExReq miss latency
system.l2.ReadExReq_avg_mshr_miss_latency::.cpu.data 82494.514107                       # average ReadExReq mshr miss latency
system.l2.ReadExReq_avg_mshr_miss_latency::total 82494.514107                       # average ReadExReq mshr miss latency
system.l2.ReadExReq_hits::.cpu.data              3500                       # number of ReadExReq hits
system.l2.ReadExReq_hits::total                  3500                       # number of ReadExReq hits
system.l2.ReadExReq_miss_latency::.cpu.data    118023000                       # number of ReadExReq miss cycles
system.l2.ReadExReq_miss_latency::total     118023000                       # number of ReadExReq miss cycles
system.l2.ReadExReq_miss_rate::.cpu.data     0.267169                       # miss rate for ReadExReq accesses
system.l2.ReadExReq_miss_rate::total         0.267169                       # miss rate for ReadExReq accesses
system.l2.ReadExReq_misses::.cpu.data            1276                       # number of ReadExReq misses
system.l2.ReadExReq_misses::total                1276                       # number of ReadExReq misses
system.l2.ReadExReq_mshr_miss_latency::.cpu.data    105263000                       # number of ReadExReq MSHR miss cycles
system.l2.ReadExReq_mshr_miss_latency::total    105263000                       # number of ReadExReq MSHR miss cycles
system.l2.ReadExReq_mshr_miss_rate::.cpu.data     0.267169                       # mshr miss rate for ReadExReq accesses
system.l2.ReadExReq_mshr_miss_rate::total     0.267169                       # mshr miss rate for ReadExReq accesses
system.l2.ReadExReq_mshr_misses::.cpu.data         1276                       # number of ReadExReq MSHR misses
system.l2.ReadExReq_mshr_misses::total           1276                       # number of ReadExReq MSHR misses
system.l2.ReadSharedReq_accesses::.cpu.data       907456                       # number of ReadSharedReq accesses(hits+misses)
system.l2.ReadSharedReq_accesses::.cpu.dcache.prefetcher        59276                       # number of ReadSharedReq accesses(hits+misses)
system.l2.ReadSharedReq_accesses::total        966732                       # number of ReadSharedReq accesses(hits+misses)
system.l2.ReadSharedReq_avg_miss_latency::.cpu.data 91499.159664                       # average ReadSharedReq miss latency
system.l2.ReadSharedReq_avg_miss_latency::.cpu.dcache.prefetcher 176329.809121                       # average ReadSharedReq miss latency
system.l2.ReadSharedReq_avg_miss_latency::total 166623.225192                       # average ReadSharedReq miss latency
system.l2.ReadSharedReq_avg_mshr_miss_latency::.cpu.data 81499.159664                       # average ReadSharedReq mshr miss latency
system.l2.ReadSharedReq_avg_mshr_miss_latency::.cpu.dcache.prefetcher 166329.809121                       # average ReadSharedReq mshr miss latency
system.l2.ReadSharedReq_avg_mshr_miss_latency::total 156623.225192                       # average ReadSharedReq mshr miss latency
system.l2.ReadSharedReq_hits::.cpu.data        906861                       # number of ReadSharedReq hits
system.l2.ReadSharedReq_hits::.cpu.dcache.prefetcher        54671                       # number of ReadSharedReq hits
system.l2.ReadSharedReq_hits::total            961532                       # number of ReadSharedReq hits
system.l2.ReadSharedReq_miss_latency::.cpu.data     54442000                       # number of ReadSharedReq miss cycles
system.l2.ReadSharedReq_miss_latency::.cpu.dcache.prefetcher    811998771                       # number of ReadSharedReq miss cycles
system.l2.ReadSharedReq_miss_latency::total    866440771                       # number of ReadSharedReq miss cycles
system.l2.ReadSharedReq_miss_rate::.cpu.data     0.000656                       # miss rate for ReadSharedReq accesses
system.l2.ReadSharedReq_miss_rate::.cpu.dcache.prefetcher     0.077687                       # miss rate for ReadSharedReq accesses
system.l2.ReadSharedReq_miss_rate::total     0.005379                       # miss rate for ReadSharedReq accesses
system.l2.ReadSharedReq_misses::.cpu.data          595                       # number of ReadSharedReq misses
system.l2.ReadSharedReq_misses::.cpu.dcache.prefetcher         4605                       # number of ReadSharedReq misses
system.l2.ReadSharedReq_misses::total            5200                       # number of ReadSharedReq misses
system.l2.ReadSharedReq_mshr_miss_latency::.cpu.data     48492000                       # number of ReadSharedReq MSHR miss cycles
system.l2.ReadSharedReq_mshr_miss_latency::.cpu.dcache.prefetcher    765948771                       # number of ReadSharedReq MSHR miss cycles
system.l2.ReadSharedReq_mshr_miss_latency::total    814440771                       # number of ReadSharedReq MSHR miss cycles
system.l2.ReadSharedReq_mshr_miss_rate::.cpu.data     0.000656                       # mshr miss rate for ReadSharedReq accesses
system.l2.ReadSharedReq_mshr_miss_rate::.cpu.dcache.prefetcher     0.077687                       # mshr miss rate for ReadSharedReq accesses
system.l2.ReadSharedReq_mshr_miss_rate::total     0.005379                       # mshr miss rate for ReadSharedReq accesses
system.l2.ReadSharedReq_mshr_misses::.cpu.data          595                       # number of ReadSharedReq MSHR misses
system.l2.ReadSharedReq_mshr_misses::.cpu.dcache.prefetcher         4605                       # number of ReadSharedReq MSHR misses
system.l2.ReadSharedReq_mshr_misses::total         5200                       # number of ReadSharedReq MSHR misses
system.l2.WritebackClean_accesses::.writebacks          511                       # number of WritebackClean accesses(hits+misses)
system.l2.WritebackClean_accesses::total          511                       # number of WritebackClean accesses(hits+misses)
system.l2.WritebackClean_hits::.writebacks          511                       # number of WritebackClean hits
system.l2.WritebackClean_hits::total              511                       # number of WritebackClean hits
system.l2.WritebackDirty_accesses::.writebacks       797013                       # number of WritebackDirty accesses(hits+misses)
system.l2.WritebackDirty_accesses::total       797013                       # number of WritebackDirty accesses(hits+misses)
system.l2.WritebackDirty_hits::.writebacks       797013                       # number of WritebackDirty hits
system.l2.WritebackDirty_hits::total           797013                       # number of WritebackDirty hits
system.l2.avg_blocked_cycles::no_mshrs            nan                       # average number of cycles each access was blocked
system.l2.avg_blocked_cycles::no_targets          nan                       # average number of cycles each access was blocked
system.l2.blocked::no_mshrs                         0                       # number of cycles access was blocked
system.l2.blocked::no_targets                       0                       # number of cycles access was blocked
system.l2.blocked_cycles::no_mshrs                  0                       # number of cycles access was blocked
system.l2.blocked_cycles::no_targets                0                       # number of cycles access was blocked
system.l2.demand_accesses::.cpu.inst             1009                       # number of demand (read+write) accesses
system.l2.demand_accesses::.cpu.data           912232                       # number of demand (read+write) accesses
system.l2.demand_accesses::.cpu.dcache.prefetcher        59276                       # number of demand (read+write) accesses
system.l2.demand_accesses::total               972517                       # number of demand (read+write) accesses
system.l2.demand_avg_miss_latency::.cpu.inst 88214.360587                       # average overall miss latency
system.l2.demand_avg_miss_latency::.cpu.data 92177.979690                       # average overall miss latency
system.l2.demand_avg_miss_latency::.cpu.dcache.prefetcher 176329.809121                       # average overall miss latency
system.l2.demand_avg_miss_latency::total 143825.070121                       # average overall miss latency
system.l2.demand_avg_mshr_miss_latency::.cpu.inst 78214.360587                       # average overall mshr miss latency
system.l2.demand_avg_mshr_miss_latency::.cpu.data 82177.979690                       # average overall mshr miss latency
system.l2.demand_avg_mshr_miss_latency::.cpu.dcache.prefetcher 166329.809121                       # average overall mshr miss latency
system.l2.demand_avg_mshr_miss_latency::total 133825.070121                       # average overall mshr miss latency
system.l2.demand_hits::.cpu.inst                   55                       # number of demand (read+write) hits
system.l2.demand_hits::.cpu.data               910361                       # number of demand (read+write) hits
system.l2.demand_hits::.cpu.dcache.prefetcher        54671                       # number of demand (read+write) hits
system.l2.demand_hits::total                   965087                       # number of demand (read+write) hits
system.l2.demand_miss_latency::.cpu.inst     84156500                       # number of demand (read+write) miss cycles
system.l2.demand_miss_latency::.cpu.data    172465000                       # number of demand (read+write) miss cycles
system.l2.demand_miss_latency::.cpu.dcache.prefetcher    811998771                       # number of demand (read+write) miss cycles
system.l2.demand_miss_latency::total       1068620271                       # number of demand (read+write) miss cycles
system.l2.demand_miss_rate::.cpu.inst        0.945491                       # miss rate for demand accesses
system.l2.demand_miss_rate::.cpu.data        0.002051                       # miss rate for demand accesses
system.l2.demand_miss_rate::.cpu.dcache.prefetcher     0.077687                       # miss rate for demand accesses
system.l2.demand_miss_rate::total            0.007640                       # miss rate for demand accesses
system.l2.demand_misses::.cpu.inst                954                       # number of demand (read+write) misses
system.l2.demand_misses::.cpu.data               1871                       # number of demand (read+write) misses
system.l2.demand_misses::.cpu.dcache.prefetcher         4605                       # number of demand (read+write) misses
system.l2.demand_misses::total                   7430                       # number of demand (read+write) misses
system.l2.demand_mshr_miss_latency::.cpu.inst     74616500                       # number of demand (read+write) MSHR miss cycles
system.l2.demand_mshr_miss_latency::.cpu.data    153755000                       # number of demand (read+write) MSHR miss cycles
system.l2.demand_mshr_miss_latency::.cpu.dcache.prefetcher    765948771                       # number of demand (read+write) MSHR miss cycles
system.l2.demand_mshr_miss_latency::total    994320271                       # number of demand (read+write) MSHR miss cycles
system.l2.demand_mshr_miss_rate::.cpu.inst     0.945491                       # mshr miss rate for demand accesses
system.l2.demand_mshr_miss_rate::.cpu.data     0.002051                       # mshr miss rate for demand accesses
system.l2.demand_mshr_miss_rate::.cpu.dcache.prefetcher     0.077687                       # mshr miss rate for demand accesses
system.l2.demand_mshr_miss_rate::total       0.007640                       # mshr miss rate for demand accesses
system.l2.demand_mshr_misses::.cpu.inst           954                       # number of demand (read+write) MSHR misses
system.l2.demand_mshr_misses::.cpu.data          1871                       # number of demand (read+write) MSHR misses
system.l2.demand_mshr_misses::.cpu.dcache.prefetcher         4605                       # number of demand (read+write) MSHR misses
system.l2.demand_mshr_misses::total              7430                       # number of demand (read+write) MSHR misses
system.l2.overall_accesses::.cpu.inst            1009                       # number of overall (read+write) accesses
system.l2.overall_accesses::.cpu.data          912232                       # number of overall (read+write) accesses
system.l2.overall_accesses::.cpu.dcache.prefetcher        59276                       # number of overall (read+write) accesses
system.l2.overall_accesses::total              972517                       # number of overall (read+write) accesses
system.l2.overall_avg_miss_latency::.cpu.inst 88214.360587                       # average overall miss latency
system.l2.overall_avg_miss_latency::.cpu.data 92177.979690                       # average overall miss latency
system.l2.overall_avg_miss_latency::.cpu.dcache.prefetcher 176329.809121                       # average overall miss latency
system.l2.overall_avg_miss_latency::total 143825.070121                       # average overall miss latency
system.l2.overall_avg_mshr_miss_latency::.cpu.inst 78214.360587                       # average overall mshr miss latency
system.l2.overall_avg_mshr_miss_latency::.cpu.data 82177.979690                       # average overall mshr miss latency
system.l2.overall_avg_mshr_miss_latency::.cpu.dcache.prefetcher 166329.809121                       # average overall mshr miss latency
system.l2.overall_avg_mshr_miss_latency::total 133825.070121                       # average overall mshr miss latency
system.l2.overall_hits::.cpu.inst                  55                       # number of overall hits
system.l2.overall_hits::.cpu.data              910361                       # number of overall hits
system.l2.overall_hits::.cpu.dcache.prefetcher        54671                       # number of overall hits
system.l2.overall_hits::total                  965087                       # number of overall hits
system.l2.overall_miss_latency::.cpu.inst     84156500                       # number of overall miss cycles
system.l2.overall_miss_latency::.cpu.data    172465000                       # number of overall miss cycles
system.l2.overall_miss_latency::.cpu.dcache.prefetcher    811998771                       # number of overall miss cycles
system.l2.overall_miss_latency::total      1068620271                       # number of overall miss cycles
system.l2.overall_miss_rate::.cpu.inst       0.945491                       # miss rate for overall accesses
system.l2.overall_miss_rate::.cpu.data       0.002051                       # miss rate for overall accesses
system.l2.overall_miss_rate::.cpu.dcache.prefetcher     0.077687                       # miss rate for overall accesses
system.l2.overall_miss_rate::total           0.007640                       # miss rate for overall accesses
system.l2.overall_misses::.cpu.inst               954                       # number of overall misses
system.l2.overall_misses::.cpu.data              1871                       # number of overall misses
system.l2.overall_misses::.cpu.dcache.prefetcher         4605                       # number of overall misses
system.l2.overall_misses::total                  7430                       # number of overall misses
system.l2.overall_mshr_miss_latency::.cpu.inst     74616500                       # number of overall MSHR miss cycles
system.l2.overall_mshr_miss_latency::.cpu.data    153755000                       # number of overall MSHR miss cycles
system.l2.overall_mshr_miss_latency::.cpu.dcache.prefetcher    765948771                       # number of overall MSHR miss cycles
system.l2.overall_mshr_miss_latency::total    994320271                       # number of overall MSHR miss cycles
system.l2.overall_mshr_miss_rate::.cpu.inst     0.945491                       # mshr miss rate for overall accesses
system.l2.overall_mshr_miss_rate::.cpu.data     0.002051                       # mshr miss rate for overall accesses
system.l2.overall_mshr_miss_rate::.cpu.dcache.prefetcher     0.077687                       # mshr miss rate for overall accesses
system.l2.overall_mshr_miss_rate::total      0.007640                       # mshr miss rate for overall accesses
system.l2.overall_mshr_misses::.cpu.inst          954                       # number of overall MSHR misses
system.l2.overall_mshr_misses::.cpu.data         1871                       # number of overall MSHR misses
system.l2.overall_mshr_misses::.cpu.dcache.prefetcher         4605                       # number of overall MSHR misses
system.l2.overall_mshr_misses::total             7430                       # number of overall MSHR misses
system.l2.pwrStateResidencyTicks::UNDEFINED  81919994500                       # Cumulative time (in ticks) in various power states
system.l2.replacements                              0                       # number of replacements
system.l2.tags.age_task_id_blocks_1022::1            2                       # Occupied blocks per task id
system.l2.tags.age_task_id_blocks_1022::3          142                       # Occupied blocks per task id
system.l2.tags.age_task_id_blocks_1022::4         4461                       # Occupied blocks per task id
system.l2.tags.age_task_id_blocks_1024::0           56                       # Occupied blocks per task id
system.l2.tags.age_task_id_blocks_1024::1           35                       # Occupied blocks per task id
system.l2.tags.age_task_id_blocks_1024::3            2                       # Occupied blocks per task id
system.l2.tags.age_task_id_blocks_1024::4         2732                       # Occupied blocks per task id
system.l2.tags.avg_refs                    261.574966                       # Average number of references to valid blocks.
system.l2.tags.data_accesses                 15555446                       # Number of data accesses
system.l2.tags.occ_blocks::.cpu.inst       863.170062                       # Average occupied blocks per requestor
system.l2.tags.occ_blocks::.cpu.data      1827.752415                       # Average occupied blocks per requestor
system.l2.tags.occ_blocks::.cpu.dcache.prefetcher  4017.232658                       # Average occupied blocks per requestor
system.l2.tags.occ_percent::.cpu.inst        0.026342                       # Average percentage of cache occupancy
system.l2.tags.occ_percent::.cpu.data        0.055779                       # Average percentage of cache occupancy
system.l2.tags.occ_percent::.cpu.dcache.prefetcher     0.122596                       # Average percentage of cache occupancy
system.l2.tags.occ_percent::total            0.204717                       # Average percentage of cache occupancy
system.l2.tags.occ_task_id_blocks::1022          4605                       # Occupied blocks per task id
system.l2.tags.occ_task_id_blocks::1024          2825                       # Occupied blocks per task id
system.l2.tags.occ_task_id_percent::1022     0.140533                       # Percentage of cache occupancy per task id
system.l2.tags.occ_task_id_percent::1024     0.086212                       # Percentage of cache occupancy per task id
system.l2.tags.pwrStateResidencyTicks::UNDEFINED  81919994500                       # Cumulative time (in ticks) in various power states
system.l2.tags.sampled_refs                      7430                       # Sample count of references to valid blocks.
system.l2.tags.tag_accesses                  15555446                       # Number of tag accesses
system.l2.tags.tagsinuse                  6708.155135                       # Cycle average of tags in use
system.l2.tags.total_refs                     1943502                       # Total number of references to valid blocks.
system.l2.tags.warmup_cycle                     77000                       # Cycle when the warmup percentage was hit.
system.mem_ctrls.avgBusLat                    5000.00                       # Average bus latency per DRAM burst
system.mem_ctrls.avgGap                   11025560.50                       # Average gap between requests
system.mem_ctrls.avgMemAccLat                92219.02                       # Average memory access latency per DRAM burst
system.mem_ctrls.avgPriority_.cpu.inst::samples       954.00                       # Average QoS priority value for accepted requests
system.mem_ctrls.avgPriority_.cpu.data::samples      1871.00                       # Average QoS priority value for accepted requests
system.mem_ctrls.avgPriority_.cpu.dcache.prefetcher::samples      4605.00                       # Average QoS priority value for accepted requests
system.mem_ctrls.avgQLat                     73469.02                       # Average queueing delay per DRAM burst
system.mem_ctrls.avgRdBW                         5.80                       # Average DRAM read bandwidth in MiByte/s
system.mem_ctrls.avgRdBWSys                      5.80                       # Average system read bandwidth in MiByte/s
system.mem_ctrls.avgRdQLen                       1.07                       # Average read queue length when enqueuing
system.mem_ctrls.avgWrBW                         0.00                       # Average achieved write bandwidth in MiByte/s
system.mem_ctrls.avgWrBWSys                      0.00                       # Average system write bandwidth in MiByte/s
system.mem_ctrls.avgWrQLen                       0.00                       # Average write queue length when enqueuing
system.mem_ctrls.busUtil                         0.05                       # Data bus utilization in percentage
system.mem_ctrls.busUtilRead                     0.05                       # Data bus utilization in percentage for reads
system.mem_ctrls.busUtilWrite                    0.00                       # Data bus utilization in percentage for writes
system.mem_ctrls.bw_inst_read::.cpu.inst       745313                       # Instruction read bandwidth from this memory (bytes/s)
system.mem_ctrls.bw_inst_read::total           745313                       # Instruction read bandwidth from this memory (bytes/s)
system.mem_ctrls.bw_read::.cpu.inst            745313                       # Total read bandwidth from this memory (bytes/s)
system.mem_ctrls.bw_read::.cpu.data           1461719                       # Total read bandwidth from this memory (bytes/s)
system.mem_ctrls.bw_read::.cpu.dcache.prefetcher      3597656                       # Total read bandwidth from this memory (bytes/s)
system.mem_ctrls.bw_read::total               5804688                       # Total read bandwidth from this memory (bytes/s)
system.mem_ctrls.bw_total::.cpu.inst           745313                       # Total bandwidth to/from this memory (bytes/s)
system.mem_ctrls.bw_total::.cpu.data          1461719                       # Total bandwidth to/from this memory (bytes/s)
system.mem_ctrls.bw_total::.cpu.dcache.prefetcher      3597656                       # Total bandwidth to/from this memory (bytes/s)
system.mem_ctrls.bw_total::total              5804688                       # Total bandwidth to/from this memory (bytes/s)
system.mem_ctrls.bytesPerActivate::samples         2746                       # Bytes accessed per row activation
system.mem_ctrls.bytesPerActivate::mean    172.772032                       # Bytes accessed per row activation
system.mem_ctrls.bytesPerActivate::gmean   104.044721                       # Bytes accessed per row activation
system.mem_ctrls.bytesPerActivate::stdev   241.541856                       # Bytes accessed per row activation
system.mem_ctrls.bytesPerActivate::0-127         1878     68.39%     68.39% # Bytes accessed per row activation
system.mem_ctrls.bytesPerActivate::128-255          396     14.42%     82.81% # Bytes accessed per row activation
system.mem_ctrls.bytesPerActivate::256-383          114      4.15%     86.96% # Bytes accessed per row activation
system.mem_ctrls.bytesPerActivate::384-511           54      1.97%     88.93% # Bytes accessed per row activation
system.mem_ctrls.bytesPerActivate::512-639           83      3.02%     91.95% # Bytes accessed per row activation
system.mem_ctrls.bytesPerActivate::640-767           64      2.33%     94.28% # Bytes accessed per row activation
system.mem_ctrls.bytesPerActivate::768-895           16      0.58%     94.87% # Bytes accessed per row activation
system.mem_ctrls.bytesPerActivate::896-1023           25      0.91%     95.78% # Bytes accessed per row activation
system.mem_ctrls.bytesPerActivate::1024-1151          116      4.22%    100.00% # Bytes accessed per row activation
system.mem_ctrls.bytesPerActivate::total         2746                       # Bytes accessed per row activation
system.mem_ctrls.bytesReadDRAM                 475520                       # Total number of bytes read from DRAM
system.mem_ctrls.bytesReadSys                  475520                       # Total read bytes from the system interface side
system.mem_ctrls.bytesReadWrQ                       0                       # Total number of bytes read from write queue
system.mem_ctrls.bytesWritten                       0                       # Total number of bytes written to DRAM
system.mem_ctrls.bytesWrittenSys                    0                       # Total written bytes from the system interface side
system.mem_ctrls.bytes_inst_read::.cpu.inst        61056                       # Number of instructions bytes read from this memory
system.mem_ctrls.bytes_inst_read::total         61056                       # Number of instructions bytes read from this memory
system.mem_ctrls.bytes_read::.cpu.inst          61056                       # Number of bytes read from this memory
system.mem_ctrls.bytes_read::.cpu.data         119744                       # Number of bytes read from this memory
system.mem_ctrls.bytes_read::.cpu.dcache.prefetcher       294720                       # Number of bytes read from this memory
system.mem_ctrls.bytes_read::total             475520                       # Number of bytes read from this memory
system.mem_ctrls.masterReadAccesses::.cpu.inst          954                       # Per-master read serviced memory accesses
system.mem_ctrls.masterReadAccesses::.cpu.data         1871                       # Per-master read serviced memory accesses
system.mem_ctrls.masterReadAccesses::.cpu.dcache.prefetcher         4605                       # Per-master read serviced memory accesses
system.mem_ctrls.masterReadAvgLat::.cpu.inst     37385.21                       # Per-master read average memory access latency
system.mem_ctrls.masterReadAvgLat::.cpu.data     41325.89                       # Per-master read average memory access latency
system.mem_ctrls.masterReadAvgLat::.cpu.dcache.prefetcher    124256.48                       # Per-master read average memory access latency
system.mem_ctrls.masterReadBytes::.cpu.inst        61056                       # Per-master bytes read from memory
system.mem_ctrls.masterReadBytes::.cpu.data       119744                       # Per-master bytes read from memory
system.mem_ctrls.masterReadBytes::.cpu.dcache.prefetcher       294720                       # Per-master bytes read from memory
system.mem_ctrls.masterReadRate::.cpu.inst 745312.550039294758                       # Per-master bytes read from memory rate (Bytes/sec)
system.mem_ctrls.masterReadRate::.cpu.data 1461718.848137862282                       # Per-master bytes read from memory rate (Bytes/sec)
system.mem_ctrls.masterReadRate::.cpu.dcache.prefetcher 3597656.491541878786                       # Per-master bytes read from memory rate (Bytes/sec)
system.mem_ctrls.masterReadTotalLat::.cpu.inst     35665491                       # Per-master read total memory access latency
system.mem_ctrls.masterReadTotalLat::.cpu.data     77320736                       # Per-master read total memory access latency
system.mem_ctrls.masterReadTotalLat::.cpu.dcache.prefetcher    572201073                       # Per-master read total memory access latency
system.mem_ctrls.mergedWrBursts                     0                       # Number of DRAM write bursts merged with an existing one
system.mem_ctrls.neitherReadNorWriteReqs            0                       # Number of requests that are neither read nor write
system.mem_ctrls.numRdRetry                         0                       # Number of times read queue was full causing retry
system.mem_ctrls.numReadWriteTurnArounds            0                       # Number of turnarounds from READ to WRITE
system.mem_ctrls.numStayReadState               17525                       # Number of times bus staying in READ state
system.mem_ctrls.numStayWriteState                  0                       # Number of times bus staying in WRITE state
system.mem_ctrls.numWrRetry                         0                       # Number of times write queue was full causing retry
system.mem_ctrls.numWriteReadTurnArounds            0                       # Number of turnarounds from WRITE to READ
system.mem_ctrls.num_reads::.cpu.inst             954                       # Number of read requests responded to by this memory
system.mem_ctrls.num_reads::.cpu.data            1871                       # Number of read requests responded to by this memory
system.mem_ctrls.num_reads::.cpu.dcache.prefetcher         4605                       # Number of read requests responded to by this memory
system.mem_ctrls.num_reads::total                7430                       # Number of read requests responded to by this memory
system.mem_ctrls.pageHitRate                    62.99                       # Row buffer hit rate, read and write combined
system.mem_ctrls.peakBW                      12800.00                       # Theoretical peak bandwidth in MiByte/s
system.mem_ctrls.perBankRdBursts::0               451                       # Per bank write bursts
system.mem_ctrls.perBankRdBursts::1               497                       # Per bank write bursts
system.mem_ctrls.perBankRdBursts::2               578                       # Per bank write bursts
system.mem_ctrls.perBankRdBursts::3               463                       # Per bank write bursts
system.mem_ctrls.perBankRdBursts::4               478                       # Per bank write bursts
system.mem_ctrls.perBankRdBursts::5               337                       # Per bank write bursts
system.mem_ctrls.perBankRdBursts::6               379                       # Per bank write bursts
system.mem_ctrls.perBankRdBursts::7               453                       # Per bank write bursts
system.mem_ctrls.perBankRdBursts::8               542                       # Per bank write bursts
system.mem_ctrls.perBankRdBursts::9               572                       # Per bank write bursts
system.mem_ctrls.perBankRdBursts::10              503                       # Per bank write bursts
system.mem_ctrls.perBankRdBursts::11              474                       # Per bank write bursts
system.mem_ctrls.perBankRdBursts::12              485                       # Per bank write bursts
system.mem_ctrls.perBankRdBursts::13              470                       # Per bank write bursts
system.mem_ctrls.perBankRdBursts::14              403                       # Per bank write bursts
system.mem_ctrls.perBankRdBursts::15              345                       # Per bank write bursts
system.mem_ctrls.perBankWrBursts::0                 0                       # Per bank write bursts
system.mem_ctrls.perBankWrBursts::1                 0                       # Per bank write bursts
system.mem_ctrls.perBankWrBursts::2                 0                       # Per bank write bursts
system.mem_ctrls.perBankWrBursts::3                 0                       # Per bank write bursts
system.mem_ctrls.perBankWrBursts::4                 0                       # Per bank write bursts
system.mem_ctrls.perBankWrBursts::5                 0                       # Per bank write bursts
system.mem_ctrls.perBankWrBursts::6                 0                       # Per bank write bursts
system.mem_ctrls.perBankWrBursts::7                 0                       # Per bank write bursts
system.mem_ctrls.perBankWrBursts::8                 0                       # Per bank write bursts
system.mem_ctrls.perBankWrBursts::9                 0                       # Per bank write bursts
system.mem_ctrls.perBankWrBursts::10                0                       # Per bank write bursts
system.mem_ctrls.perBankWrBursts::11                0                       # Per bank write bursts
system.mem_ctrls.perBankWrBursts::12                0                       # Per bank write bursts
system.mem_ctrls.perBankWrBursts::13                0                       # Per bank write bursts
system.mem_ctrls.perBankWrBursts::14                0                       # Per bank write bursts
system.mem_ctrls.perBankWrBursts::15                0                       # Per bank write bursts
system.mem_ctrls.priorityMaxLatency      0.000001102750                       # per QoS priority maximum request to response latency (s)
[...]
system.mem_ctrls.wrQLenPdf::24                      0                       # What write queue length does an incoming req see
system.mem_ctrls.wrQLenPdf::25                      0                       # What write queue length does an incoming req see
system.mem_ctrls.wrQLenPdf::26                      0                       # What write queue length does an incoming req see
system.mem_ctrls.wrQLenPdf::27                      0                       # What write queue length does an incoming req see
system.mem_ctrls.wrQLenPdf::28                      0                       # What write queue length does an incoming req see
system.mem_ctrls.wrQLenPdf::29                      0                       # What write queue length does an incoming req see
system.mem_ctrls.wrQLenPdf::30                      0                       # What write queue length does an incoming req see
system.mem_ctrls.wrQLenPdf::31                      0                       # What write queue length does an incoming req see
system.mem_ctrls.wrQLenPdf::32                      0                       # What write queue length does an incoming req see
system.mem_ctrls.wrQLenPdf::33                      0                       # What write queue length does an incoming req see
system.mem_ctrls.wrQLenPdf::34                      0                       # What write queue length does an incoming req see
system.mem_ctrls.wrQLenPdf::35                      0                       # What write queue length does an incoming req see
system.mem_ctrls.wrQLenPdf::36                      0                       # What write queue length does an incoming req see
system.mem_ctrls.wrQLenPdf::37                      0                       # What write queue length does an incoming req see
system.mem_ctrls.wrQLenPdf::38                      0                       # What write queue length does an incoming req see
system.mem_ctrls.wrQLenPdf::39                      0                       # What write queue length does an incoming req see
system.mem_ctrls.wrQLenPdf::40                      0                       # What write queue length does an incoming req see
system.mem_ctrls.wrQLenPdf::41                      0                       # What write queue length does an incoming req see
system.mem_ctrls.wrQLenPdf::42                      0                       # What write queue length does an incoming req see
system.mem_ctrls.wrQLenPdf::43                      0                       # What write queue length does an incoming req see
system.mem_ctrls.wrQLenPdf::44                      0                       # What write queue length does an incoming req see
system.mem_ctrls.wrQLenPdf::45                      0                       # What write queue length does an incoming req see
system.mem_ctrls.wrQLenPdf::46                      0                       # What write queue length does an incoming req see
system.mem_ctrls.wrQLenPdf::47                      0                       # What write queue length does an incoming req see
system.mem_ctrls.wrQLenPdf::48                      0                       # What write queue length does an incoming req see
system.mem_ctrls.wrQLenPdf::49                      0                       # What write queue length does an incoming req see
system.mem_ctrls.wrQLenPdf::50                      0                       # What write queue length does an incoming req see
system.mem_ctrls.wrQLenPdf::51                      0                       # What write queue length does an incoming req see
system.mem_ctrls.wrQLenPdf::52                      0                       # What write queue length does an incoming req see
system.mem_ctrls.wrQLenPdf::53                      0                       # What write queue length does an incoming req see
system.mem_ctrls.wrQLenPdf::54                      0                       # What write queue length does an incoming req see
system.mem_ctrls.wrQLenPdf::55                      0                       # What write queue length does an incoming req see
system.mem_ctrls.wrQLenPdf::56                      0                       # What write queue length does an incoming req see
system.mem_ctrls.wrQLenPdf::57                      0                       # What write queue length does an incoming req see
system.mem_ctrls.wrQLenPdf::58                      0                       # What write queue length does an incoming req see
system.mem_ctrls.wrQLenPdf::59                      0                       # What write queue length does an incoming req see
system.mem_ctrls.wrQLenPdf::60                      0                       # What write queue length does an incoming req see
system.mem_ctrls.wrQLenPdf::61                      0                       # What write queue length does an incoming req see
system.mem_ctrls.wrQLenPdf::62                      0                       # What write queue length does an incoming req see
system.mem_ctrls.wrQLenPdf::63                      0                       # What write queue length does an incoming req see
system.mem_ctrls.writeBursts                        0                       # Number of DRAM write bursts, including those merged in the write queue
system.mem_ctrls.writePktSize::0                    0                       # Write request sizes (log2)
system.mem_ctrls.writePktSize::1                    0                       # Write request sizes (log2)
system.mem_ctrls.writePktSize::2                    0                       # Write request sizes (log2)
system.mem_ctrls.writePktSize::3                    0                       # Write request sizes (log2)
system.mem_ctrls.writePktSize::4                    0                       # Write request sizes (log2)
system.mem_ctrls.writePktSize::5                    0                       # Write request sizes (log2)
system.mem_ctrls.writePktSize::6                    0                       # Write request sizes (log2)
system.mem_ctrls.writeReqs                          0                       # Number of write requests accepted
system.mem_ctrls.writeRowHitRate                  nan                       # Row buffer hit rate for writes
system.mem_ctrls.writeRowHits                       0                       # Number of row buffer hits during writes
system.mem_ctrls_0.actBackEnergy            110069280                       # Energy for active background per rank (pJ)
system.mem_ctrls_0.actEnergy                  5761980                       # Energy for activate commands per rank (pJ)
system.mem_ctrls_0.actPowerDownEnergy      1209394650                       # Energy for active power-down per rank (pJ)
system.mem_ctrls_0.averagePower            255.941768                       # Core power per rank (mW)
system.mem_ctrls_0.memoryStateTime::IDLE     33719000                       # Time in different power states
system.mem_ctrls_0.memoryStateTime::REF     149240000                       # Time in different power states
system.mem_ctrls_0.memoryStateTime::SREF  77415459500                       # Time in different power states
system.mem_ctrls_0.memoryStateTime::PRE_PDN   1562271836                       # Time in different power states
system.mem_ctrls_0.memoryStateTime::ACT     107043796                       # Time in different power states
system.mem_ctrls_0.memoryStateTime::ACT_PDN   2652260368                       # Time in different power states
system.mem_ctrls_0.preBackEnergy             18585600                       # Energy for precharge background per rank (pJ)
system.mem_ctrls_0.preEnergy                  3054975                       # Energy for precharge commands per rank (pJ)
system.mem_ctrls_0.prePowerDownEnergy       599921280                       # Energy for precharge power-down per rank (pJ)
system.mem_ctrls_0.readEnergy                25961040                       # Energy for read commands per rank (pJ)
system.mem_ctrls_0.refreshEnergy         352803360.000000                       # Energy for refresh commands per rank (pJ)
system.mem_ctrls_0.selfRefreshEnergy      18641075940                       # Energy for self refresh per rank (pJ)
system.mem_ctrls_0.totalEnergy            20966748255                       # Total energy per rank (pJ)
system.mem_ctrls_0.totalIdleTime          81629744954                       # Total Idle time Per DRAM Rank
system.mem_ctrls_0.writeEnergy                      0                       # Energy for write commands per rank (pJ)
system.mem_ctrls_1.actBackEnergy            288508920                       # Energy for active background per rank (pJ)
system.mem_ctrls_1.actEnergy                 13873020                       # Energy for activate commands per rank (pJ)
system.mem_ctrls_1.actPowerDownEnergy      3886120920                       # Energy for active power-down per rank (pJ)
system.mem_ctrls_1.averagePower            297.985127                       # Core power per rank (mW)
system.mem_ctrls_1.memoryStateTime::IDLE    195173500                       # Time in different power states
system.mem_ctrls_1.memoryStateTime::REF     545480000                       # Time in different power states
system.mem_ctrls_1.memoryStateTime::SREF  65396544000                       # Time in different power states
system.mem_ctrls_1.memoryStateTime::PRE_PDN   7124396844                       # Time in different power states
system.mem_ctrls_1.memoryStateTime::ACT     136178760                       # Time in different power states
system.mem_ctrls_1.memoryStateTime::ACT_PDN   8522221396                       # Time in different power states
system.mem_ctrls_1.preBackEnergy             93172800                       # Energy for precharge background per rank (pJ)
system.mem_ctrls_1.preEnergy                  7366095                       # Energy for precharge commands per rank (pJ)
system.mem_ctrls_1.prePowerDownEnergy      2735784000                       # Energy for precharge power-down per rank (pJ)
system.mem_ctrls_1.readEnergy                27089160                       # Energy for read commands per rank (pJ)
system.mem_ctrls_1.refreshEnergy         1289514720.000000                       # Energy for refresh commands per rank (pJ)
system.mem_ctrls_1.selfRefreshEnergy      16068841440                       # Energy for self refresh per rank (pJ)
system.mem_ctrls_1.totalEnergy            24410939925                       # Total energy per rank (pJ)
system.mem_ctrls_1.totalIdleTime          81043118490                       # Total Idle time Per DRAM Rank
system.mem_ctrls_1.writeEnergy                      0                       # Energy for write commands per rank (pJ)
system.membus.pkt_count_system.l2.mem_side::system.mem_ctrls.port        14860                       # Packet count per connected master and slave (bytes)
system.membus.pkt_count_system.l2.mem_side::total        14860                       # Packet count per connected master and slave (bytes)
system.membus.pkt_count::total                  14860                       # Packet count per connected master and slave (bytes)
system.membus.pkt_size_system.l2.mem_side::system.mem_ctrls.port       475520                       # Cumulative packet size per connected master and slave (bytes)
system.membus.pkt_size_system.l2.mem_side::total       475520                       # Cumulative packet size per connected master and slave (bytes)
system.membus.pkt_size::total                  475520                       # Cumulative packet size per connected master and slave (bytes)
system.membus.pwrStateResidencyTicks::UNDEFINED  81919994500                       # Cumulative time (in ticks) in various power states
system.membus.reqLayer2.occupancy             8906228                       # Layer occupancy (ticks)
system.membus.reqLayer2.utilization               0.0                       # Layer utilization (%)
system.membus.respLayer1.occupancy           39438373                       # Layer occupancy (ticks)
system.membus.respLayer1.utilization              0.0                       # Layer utilization (%)
system.membus.snoopTraffic                          0                       # Total snoop traffic (bytes)
system.membus.snoop_fanout::samples              7430                       # Request fanout histogram
system.membus.snoop_fanout::mean                    0                       # Request fanout histogram
system.membus.snoop_fanout::stdev                   0                       # Request fanout histogram
system.membus.snoop_fanout::underflows              0      0.00%      0.00% # Request fanout histogram
system.membus.snoop_fanout::0                    7430    100.00%    100.00% # Request fanout histogram
system.membus.snoop_fanout::1                       0      0.00%    100.00% # Request fanout histogram
system.membus.snoop_fanout::overflows               0      0.00%    100.00% # Request fanout histogram
system.membus.snoop_fanout::min_value               0                       # Request fanout histogram
system.membus.snoop_fanout::max_value               0                       # Request fanout histogram
system.membus.snoop_fanout::total                7430                       # Request fanout histogram
system.membus.snoop_filter.hit_multi_requests            0                       # Number of requests hitting in the snoop filter with multiple (>1) holders of the requested data.
system.membus.snoop_filter.hit_multi_snoops            0                       # Number of snoops hitting in the snoop filter with multiple (>1) holders of the requested data.
system.membus.snoop_filter.hit_single_requests            0                       # Number of requests hitting in the snoop filter with a single holder of the requested data.
system.membus.snoop_filter.hit_single_snoops            0                       # Number of snoops hitting in the snoop filter with a single holder of the requested data.
system.membus.snoop_filter.tot_requests          7430                       # Total number of requests made to the snoop filter.
system.membus.snoop_filter.tot_snoops               0                       # Total number of snoops made to the snoop filter.
system.membus.snoops                                0                       # Total snoops (count)
system.membus.trans_dist::ReadResp               6154                       # Transaction distribution
system.membus.trans_dist::ReadExReq              1276                       # Transaction distribution
system.membus.trans_dist::ReadExResp             1276                       # Transaction distribution
system.membus.trans_dist::ReadSharedReq          6154                       # Transaction distribution
system.pwrStateResidencyTicks::UNDEFINED  81919994500                       # Cumulative time (in ticks) in various power states
system.tol2bus.pkt_count_system.cpu.icache.mem_side::system.l2.cpu_side         2530                       # Packet count per connected master and slave (bytes)
system.tol2bus.pkt_count_system.cpu.dcache.mem_side::system.l2.cpu_side      2913500                       # Packet count per connected master and slave (bytes)
system.tol2bus.pkt_count::total               2916030                       # Packet count per connected master and slave (bytes)
system.tol2bus.pkt_size_system.cpu.icache.mem_side::system.l2.cpu_side        97344                       # Cumulative packet size per connected master and slave (bytes)
system.tol2bus.pkt_size_system.cpu.dcache.mem_side::system.l2.cpu_side    113185344                       # Cumulative packet size per connected master and slave (bytes)
system.tol2bus.pkt_size::total              113282688                       # Cumulative packet size per connected master and slave (bytes)
system.tol2bus.pwrStateResidencyTicks::UNDEFINED  81919994500                       # Cumulative time (in ticks) in various power states
system.tol2bus.reqLayer0.occupancy         1791342922                       # Layer occupancy (ticks)
system.tol2bus.reqLayer0.utilization              2.2                       # Layer utilization (%)
system.tol2bus.respLayer0.occupancy           1513500                       # Layer occupancy (ticks)
system.tol2bus.respLayer0.utilization             0.0                       # Layer utilization (%)
system.tol2bus.respLayer1.occupancy        1457262000                       # Layer occupancy (ticks)
system.tol2bus.respLayer1.utilization             1.8                       # Layer utilization (%)
system.tol2bus.snoopTraffic                         0                       # Total snoop traffic (bytes)
system.tol2bus.snoop_fanout::samples           972517                       # Request fanout histogram
system.tol2bus.snoop_fanout::mean            0.000011                       # Request fanout histogram
system.tol2bus.snoop_fanout::stdev           0.003363                       # Request fanout histogram
system.tol2bus.snoop_fanout::underflows             0      0.00%      0.00% # Request fanout histogram
system.tol2bus.snoop_fanout::0                 972506    100.00%    100.00% # Request fanout histogram
system.tol2bus.snoop_fanout::1                     11      0.00%    100.00% # Request fanout histogram
system.tol2bus.snoop_fanout::2                      0      0.00%    100.00% # Request fanout histogram
system.tol2bus.snoop_fanout::3                      0      0.00%    100.00% # Request fanout histogram
system.tol2bus.snoop_fanout::4                      0      0.00%    100.00% # Request fanout histogram
system.tol2bus.snoop_fanout::overflows              0      0.00%    100.00% # Request fanout histogram
system.tol2bus.snoop_fanout::min_value              0                       # Request fanout histogram
system.tol2bus.snoop_fanout::max_value              1                       # Request fanout histogram
system.tol2bus.snoop_fanout::total             972517                       # Request fanout histogram
system.tol2bus.snoop_filter.hit_multi_requests           11                       # Number of requests hitting in the snoop filter with multiple (>1) holders of the requested data.
system.tol2bus.snoop_filter.hit_multi_snoops            0                       # Number of snoops hitting in the snoop filter with multiple (>1) holders of the requested data.
system.tol2bus.snoop_filter.hit_single_requests       970996                       # Number of requests hitting in the snoop filter with a single holder of the requested data.
system.tol2bus.snoop_filter.hit_single_snoops            0                       # Number of snoops hitting in the snoop filter with a single holder of the requested data.
system.tol2bus.snoop_filter.tot_requests      1943513                       # Total number of requests made to the snoop filter.
system.tol2bus.snoop_filter.tot_snoops              0                       # Total number of snoops made to the snoop filter.
system.tol2bus.snoops                               0                       # Total snoops (count)
system.tol2bus.trans_dist::ReadResp            967741                       # Transaction distribution
system.tol2bus.trans_dist::WritebackDirty       797013                       # Transaction distribution
system.tol2bus.trans_dist::WritebackClean          512                       # Transaction distribution
system.tol2bus.trans_dist::CleanEvict          173471                       # Transaction distribution
system.tol2bus.trans_dist::ReadExReq             4776                       # Transaction distribution
system.tol2bus.trans_dist::ReadExResp            4776                       # Transaction distribution
system.tol2bus.trans_dist::ReadCleanReq          1009                       # Transaction distribution
system.tol2bus.trans_dist::ReadSharedReq       966732                       # Transaction distribution
system.voltage_domain.voltage                       1                       # Voltage in Volts

---------- End Simulation Statistics   ----------
