
---------- Begin Simulation Statistics ----------
final_tick                                82719627500                       # Number of ticks from beginning of simulation (restored from checkpoints and never reset)
host_inst_rate                                 675000                       # Simulator instruction rate (inst/s)
host_mem_usage                                 672644                       # Number of bytes of host memory used
host_op_rate                                  1265613                       # Simulator op (including micro ops) rate (op/s)
host_seconds                                    58.57                       # Real time elapsed on the host
host_tick_rate                             1412216288                       # Simulator tick rate (ticks/s)
sim_freq                                 1000000000000                       # Frequency of simulated ticks
sim_insts                                    39537586                       # Number of instructions simulated
sim_ops                                      74132426                       # Number of ops (including micro ops) simulated
sim_seconds                                  0.082720                       # Number of seconds simulated
sim_ticks                                 82719627500                       # Number of ticks simulated
system.clk_domain.clock                          1000                       # Clock period in ticks
system.cpu.Branches                           8239501                       # Number of branches fetched
system.cpu.apic_clk_domain.clock                 8000                       # Clock period in ticks
system.cpu.committedInsts                    39537586                       # Number of instructions committed
system.cpu.committedOps                      74132426                       # Number of ops (including micro ops) committed
system.cpu.dcache.ReadReq_accesses::.cpu.data      8769734                       # number of ReadReq accesses(hits+misses)
system.cpu.dcache.ReadReq_accesses::total      8769734                       # number of ReadReq accesses(hits+misses)
system.cpu.dcache.ReadReq_avg_miss_latency::.cpu.data 13189.438458                       # average ReadReq miss latency
system.cpu.dcache.ReadReq_avg_miss_latency::total 13189.438458                       # average ReadReq miss latency
system.cpu.dcache.ReadReq_avg_mshr_miss_latency::.cpu.data 12189.438458                       # average ReadReq mshr miss latency
system.cpu.dcache.ReadReq_avg_mshr_miss_latency::total 12189.438458                       # average ReadReq mshr miss latency
system.cpu.dcache.ReadReq_hits::.cpu.data      7867148                       # number of ReadReq hits
system.cpu.dcache.ReadReq_hits::total         7867148                       # number of ReadReq hits
system.cpu.dcache.ReadReq_miss_latency::.cpu.data  11904602500                       # number of ReadReq miss cycles
system.cpu.dcache.ReadReq_miss_latency::total  11904602500                       # number of ReadReq miss cycles
system.cpu.dcache.ReadReq_miss_rate::.cpu.data     0.102921                       # miss rate for ReadReq accesses
system.cpu.dcache.ReadReq_miss_rate::total     0.102921                       # miss rate for ReadReq accesses
system.cpu.dcache.ReadReq_misses::.cpu.data       902586                       # number of ReadReq misses
system.cpu.dcache.ReadReq_misses::total        902586                       # number of ReadReq misses
system.cpu.dcache.ReadReq_mshr_miss_latency::.cpu.data  11002016500                       # number of ReadReq MSHR miss cycles
system.cpu.dcache.ReadReq_mshr_miss_latency::total  11002016500                       # number of ReadReq MSHR miss cycles
system.cpu.dcache.ReadReq_mshr_miss_rate::.cpu.data     0.102921                       # mshr miss rate for ReadReq accesses
system.cpu.dcache.ReadReq_mshr_miss_rate::total     0.102921                       # mshr miss rate for ReadReq accesses
system.cpu.dcache.ReadReq_mshr_misses::.cpu.data       902586                       # number of ReadReq MSHR misses
system.cpu.dcache.ReadReq_mshr_misses::total       902586                       # number of ReadReq MSHR misses
system.cpu.dcache.WriteReq_accesses::.cpu.data      2722470                       # number of WriteReq accesses(hits+misses)
system.cpu.dcache.WriteReq_accesses::total      2722470                       # number of WriteReq accesses(hits+misses)
system.cpu.dcache.WriteReq_avg_miss_latency::.cpu.data 60066.896597                       # average WriteReq miss latency
system.cpu.dcache.WriteReq_avg_miss_latency::total 60066.896597                       # average WriteReq miss latency
system.cpu.dcache.WriteReq_avg_mshr_miss_latency::.cpu.data 59066.896597                       # average WriteReq mshr miss latency
system.cpu.dcache.WriteReq_avg_mshr_miss_latency::total 59066.896597                       # average WriteReq mshr miss latency
system.cpu.dcache.WriteReq_hits::.cpu.data      2707103                       # number of WriteReq hits
system.cpu.dcache.WriteReq_hits::total        2707103                       # number of WriteReq hits
system.cpu.dcache.WriteReq_miss_latency::.cpu.data    923048000                       # number of WriteReq miss cycles
system.cpu.dcache.WriteReq_miss_latency::total    923048000                       # number of WriteReq miss cycles
system.cpu.dcache.WriteReq_miss_rate::.cpu.data     0.005645                       # miss rate for WriteReq accesses
system.cpu.dcache.WriteReq_miss_rate::total     0.005645                       # miss rate for WriteReq accesses
system.cpu.dcache.WriteReq_misses::.cpu.data        15367                       # number of WriteReq misses
system.cpu.dcache.WriteReq_misses::total        15367                       # number of WriteReq misses
system.cpu.dcache.WriteReq_mshr_miss_latency::.cpu.data    907681000                       # number of WriteReq MSHR miss cycles
system.cpu.dcache.WriteReq_mshr_miss_latency::total    907681000                       # number of WriteReq MSHR miss cycles
system.cpu.dcache.WriteReq_mshr_miss_rate::.cpu.data     0.005645                       # mshr miss rate for WriteReq accesses
system.cpu.dcache.WriteReq_mshr_miss_rate::total     0.005645                       # mshr miss rate for WriteReq accesses
system.cpu.dcache.WriteReq_mshr_misses::.cpu.data        15367                       # number of WriteReq MSHR misses
system.cpu.dcache.WriteReq_mshr_misses::total        15367                       # number of WriteReq MSHR misses
system.cpu.dcache.avg_blocked_cycles::no_mshrs          nan                       # average number of cycles each access was blocked
system.cpu.dcache.avg_blocked_cycles::no_targets          nan                       # average number of cycles each access was blocked
system.cpu.dcache.blocked::no_mshrs                 0                       # number of cycles access was blocked
system.cpu.dcache.blocked::no_targets               0                       # number of cycles access was blocked
system.cpu.dcache.blocked_cycles::no_mshrs            0                       # number of cycles access was blocked
system.cpu.dcache.blocked_cycles::no_targets            0                       # number of cycles access was blocked
system.cpu.dcache.demand_accesses::.cpu.data     11492204                       # number of demand (read+write) accesses
system.cpu.dcache.demand_accesses::total     11492204                       # number of demand (read+write) accesses
system.cpu.dcache.demand_avg_miss_latency::.cpu.data 13974.190944                       # average overall miss latency
system.cpu.dcache.demand_avg_miss_latency::total 13974.190944                       # average overall miss latency
system.cpu.dcache.demand_avg_mshr_miss_latency::.cpu.data 12974.190944                       # average overall mshr miss latency
system.cpu.dcache.demand_avg_mshr_miss_latency::total 12974.190944                       # average overall mshr miss latency
system.cpu.dcache.demand_hits::.cpu.data     10574251                       # number of demand (read+write) hits
system.cpu.dcache.demand_hits::total         10574251                       # number of demand (read+write) hits
system.cpu.dcache.demand_miss_latency::.cpu.data  12827650500                       # number of demand (read+write) miss cycles
system.cpu.dcache.demand_miss_latency::total  12827650500                       # number of demand (read+write) miss cycles
system.cpu.dcache.demand_miss_rate::.cpu.data     0.079876                       # miss rate for demand accesses
system.cpu.dcache.demand_miss_rate::total     0.079876                       # miss rate for demand accesses
system.cpu.dcache.demand_misses::.cpu.data       917953                       # number of demand (read+write) misses
system.cpu.dcache.demand_misses::total         917953                       # number of demand (read+write) misses
system.cpu.dcache.demand_mshr_miss_latency::.cpu.data  11909697500                       # number of demand (read+write) MSHR miss cycles
system.cpu.dcache.demand_mshr_miss_latency::total  11909697500                       # number of demand (read+write) MSHR miss cycles
system.cpu.dcache.demand_mshr_miss_rate::.cpu.data     0.079876                       # mshr miss rate for demand accesses
system.cpu.dcache.demand_mshr_miss_rate::total     0.079876                       # mshr miss rate for demand accesses
system.cpu.dcache.demand_mshr_misses::.cpu.data       917953                       # number of demand (read+write) MSHR misses
system.cpu.dcache.demand_mshr_misses::total       917953                       # number of demand (read+write) MSHR misses
system.cpu.dcache.overall_accesses::.cpu.data     11492204                       # number of overall (read+write) accesses
system.cpu.dcache.overall_accesses::total     11492204                       # number of overall (read+write) accesses
system.cpu.dcache.overall_avg_miss_latency::.cpu.data 13974.190944                       # average overall miss latency
system.cpu.dcache.overall_avg_miss_latency::total 13974.190944                       # average overall miss latency
system.cpu.dcache.overall_avg_mshr_miss_latency::.cpu.data 12974.190944                       # average overall mshr miss latency
system.cpu.dcache.overall_avg_mshr_miss_latency::total 12974.190944                       # average overall mshr miss latency
system.cpu.dcache.overall_hits::.cpu.data     10574251                       # number of overall hits
system.cpu.dcache.overall_hits::total        10574251                       # number of overall hits
system.cpu.dcache.overall_miss_latency::.cpu.data  12827650500                       # number of overall miss cycles
system.cpu.dcache.overall_miss_latency::total  12827650500                       # number of overall miss cycles
system.cpu.dcache.overall_miss_rate::.cpu.data     0.079876                       # miss rate for overall accesses
system.cpu.dcache.overall_miss_rate::total     0.079876                       # miss rate for overall accesses
system.cpu.dcache.overall_misses::.cpu.data       917953                       # number of overall misses
system.cpu.dcache.overall_misses::total        917953                       # number of overall misses
system.cpu.dcache.overall_mshr_miss_latency::.cpu.data  11909697500                       # number of overall MSHR miss cycles
system.cpu.dcache.overall_mshr_miss_latency::total  11909697500                       # number of overall MSHR miss cycles
system.cpu.dcache.overall_mshr_miss_rate::.cpu.data     0.079876                       # mshr miss rate for overall accesses
system.cpu.dcache.overall_mshr_miss_rate::total     0.079876                       # mshr miss rate for overall accesses
system.cpu.dcache.overall_mshr_misses::.cpu.data       917953                       # number of overall MSHR misses
system.cpu.dcache.overall_mshr_misses::total       917953                       # number of overall MSHR misses
system.cpu.dcache.pwrStateResidencyTicks::UNDEFINED  82719627500                       # Cumulative time (in ticks) in various power states
system.cpu.dcache.replacements                 916929                       # number of replacements
system.cpu.dcache.tags.age_task_id_blocks_1024::0           83                       # Occupied blocks per task id
system.cpu.dcache.tags.age_task_id_blocks_1024::1          108                       # Occupied blocks per task id
system.cpu.dcache.tags.age_task_id_blocks_1024::2          158                       # Occupied blocks per task id
system.cpu.dcache.tags.age_task_id_blocks_1024::3          675                       # Occupied blocks per task id
system.cpu.dcache.tags.avg_refs             12.519382                       # Average number of references to valid blocks.
system.cpu.dcache.tags.data_accesses         23902361                       # Number of data accesses
system.cpu.dcache.tags.occ_blocks::.cpu.data  1022.527865                       # Average occupied blocks per requestor
system.cpu.dcache.tags.occ_percent::.cpu.data     0.998562                       # Average percentage of cache occupancy
system.cpu.dcache.tags.occ_percent::total     0.998562                       # Average percentage of cache occupancy
system.cpu.dcache.tags.occ_task_id_blocks::1024         1024                       # Occupied blocks per task id
system.cpu.dcache.tags.occ_task_id_percent::1024            1                       # Percentage of cache occupancy per task id
system.cpu.dcache.tags.pwrStateResidencyTicks::UNDEFINED  82719627500                       # Cumulative time (in ticks) in various power states
system.cpu.dcache.tags.sampled_refs            917953                       # Sample count of references to valid blocks.
system.cpu.dcache.tags.tag_accesses          23902361                       # Number of tag accesses
system.cpu.dcache.tags.tagsinuse          1022.527865                       # Cycle average of tags in use
system.cpu.dcache.tags.total_refs            11492204                       # Total number of references to valid blocks.
system.cpu.dcache.tags.warmup_cycle            174500                       # Cycle when the warmup percentage was hit.
system.cpu.dcache.writebacks::.writebacks       766384                       # number of writebacks
system.cpu.dcache.writebacks::total            766384                       # number of writebacks
system.cpu.dtb.pwrStateResidencyTicks::UNDEFINED  82719627500                       # Cumulative time (in ticks) in various power states
system.cpu.dtb.rdAccesses                     8769734                       # TLB accesses on read requests
system.cpu.dtb.rdMisses                           236                       # TLB misses on read requests
system.cpu.dtb.walker.pwrStateResidencyTicks::UNDEFINED  82719627500                       # Cumulative time (in ticks) in various power states
system.cpu.dtb.wrAccesses                     2722470                       # TLB accesses on write requests
system.cpu.dtb.wrMisses                            98                       # TLB misses on write requests
system.cpu.dtb_walker_cache.avg_blocked_cycles::no_mshrs          nan                       # average number of cycles each access was blocked
system.cpu.dtb_walker_cache.avg_blocked_cycles::no_targets          nan                       # average number of cycles each access was blocked
system.cpu.dtb_walker_cache.blocked::no_mshrs            0                       # number of cycles access was blocked
system.cpu.dtb_walker_cache.blocked::no_targets            0                       # number of cycles access was blocked
system.cpu.dtb_walker_cache.blocked_cycles::no_mshrs            0                       # number of cycles access was blocked
system.cpu.dtb_walker_cache.blocked_cycles::no_targets            0                       # number of cycles access was blocked
system.cpu.dtb_walker_cache.pwrStateResidencyTicks::UNDEFINED  82719627500                       # Cumulative time (in ticks) in various power states
system.cpu.dtb_walker_cache.replacements            0                       # number of replacements
system.cpu.dtb_walker_cache.tags.avg_refs          nan                       # Average number of references to valid blocks.
system.cpu.dtb_walker_cache.tags.data_accesses            0                       # Number of data accesses
system.cpu.dtb_walker_cache.tags.pwrStateResidencyTicks::UNDEFINED  82719627500                       # Cumulative time (in ticks) in various power states
system.cpu.dtb_walker_cache.tags.sampled_refs            0                       # Sample count of references to valid blocks.
system.cpu.dtb_walker_cache.tags.tag_accesses            0                       # Number of tag accesses
system.cpu.dtb_walker_cache.tags.tagsinuse            0                       # Cycle average of tags in use
system.cpu.dtb_walker_cache.tags.total_refs            0                       # Total number of references to valid blocks.
system.cpu.dtb_walker_cache.tags.warmup_cycle            0                       # Cycle when the warmup percentage was hit.
system.cpu.icache.ReadReq_accesses::.cpu.inst     59230587                       # number of ReadReq accesses(hits+misses)
system.cpu.icache.ReadReq_accesses::total     59230587                       # number of ReadReq accesses(hits+misses)
system.cpu.icache.ReadReq_avg_miss_latency::.cpu.inst 87367.690783                       # average ReadReq miss latency
system.cpu.icache.ReadReq_avg_miss_latency::total 87367.690783                       # average ReadReq miss latency
system.cpu.icache.ReadReq_avg_mshr_miss_latency::.cpu.inst 86367.690783                       # average ReadReq mshr miss latency
system.cpu.icache.ReadReq_avg_mshr_miss_latency::total 86367.690783                       # average ReadReq mshr miss latency
system.cpu.icache.ReadReq_hits::.cpu.inst     59229578                       # number of ReadReq hits
system.cpu.icache.ReadReq_hits::total        59229578                       # number of ReadReq hits
system.cpu.icache.ReadReq_miss_latency::.cpu.inst     88154000                       # number of ReadReq miss cycles
system.cpu.icache.ReadReq_miss_latency::total     88154000                       # number of ReadReq miss cycles
system.cpu.icache.ReadReq_miss_rate::.cpu.inst     0.000017                       # miss rate for ReadReq accesses
system.cpu.icache.ReadReq_miss_rate::total     0.000017                       # miss rate for ReadReq accesses
system.cpu.icache.ReadReq_misses::.cpu.inst         1009                       # number of ReadReq misses
system.cpu.icache.ReadReq_misses::total          1009                       # number of ReadReq misses
system.cpu.icache.ReadReq_mshr_miss_latency::.cpu.inst     87145000                       # number of ReadReq MSHR miss cycles
system.cpu.icache.ReadReq_mshr_miss_latency::total     87145000                       # number of ReadReq MSHR miss cycles
system.cpu.icache.ReadReq_mshr_miss_rate::.cpu.inst     0.000017                       # mshr miss rate for ReadReq accesses
system.cpu.icache.ReadReq_mshr_miss_rate::total     0.000017                       # mshr miss rate for ReadReq accesses
system.cpu.icache.ReadReq_mshr_misses::.cpu.inst         1009                       # number of ReadReq MSHR misses
system.cpu.icache.ReadReq_mshr_misses::total         1009                       # number of ReadReq MSHR misses
system.cpu.icache.avg_blocked_cycles::no_mshrs          nan                       # average number of cycles each access was blocked
system.cpu.icache.avg_blocked_cycles::no_targets          nan                       # average number of cycles each access was blocked
system.cpu.icache.blocked::no_mshrs                 0                       # number of cycles access was blocked
system.cpu.icache.blocked::no_targets               0                       # number of cycles access was blocked
system.cpu.icache.blocked_cycles::no_mshrs            0                       # number of cycles access was blocked
system.cpu.icache.blocked_cycles::no_targets            0                       # number of cycles access was blocked
system.cpu.icache.demand_accesses::.cpu.inst     59230587                       # number of demand (read+write) accesses
system.cpu.icache.demand_accesses::total     59230587                       # number of demand (read+write) accesses
system.cpu.icache.demand_avg_miss_latency::.cpu.inst 87367.690783                       # average overall miss latency
system.cpu.icache.demand_avg_miss_latency::total 87367.690783                       # average overall miss latency
system.cpu.icache.demand_avg_mshr_miss_latency::.cpu.inst 86367.690783                       # average overall mshr miss latency
system.cpu.icache.demand_avg_mshr_miss_latency::total 86367.690783                       # average overall mshr miss latency
system.cpu.icache.demand_hits::.cpu.inst     59229578                       # number of demand (read+write) hits
system.cpu.icache.demand_hits::total         59229578                       # number of demand (read+write) hits
system.cpu.icache.demand_miss_latency::.cpu.inst     88154000                       # number of demand (read+write) miss cycles
system.cpu.icache.demand_miss_latency::total     88154000                       # number of demand (read+write) miss cycles
system.cpu.icache.demand_miss_rate::.cpu.inst     0.000017                       # miss rate for demand accesses
system.cpu.icache.demand_miss_rate::total     0.000017                       # miss rate for demand accesses
system.cpu.icache.demand_misses::.cpu.inst         1009                       # number of demand (read+write) misses
system.cpu.icache.demand_misses::total           1009                       # number of demand (read+write) misses
system.cpu.icache.demand_mshr_miss_latency::.cpu.inst     87145000                       # number of demand (read+write) MSHR miss cycles
system.cpu.icache.demand_mshr_miss_latency::total     87145000                       # number of demand (read+write) MSHR miss cycles
system.cpu.icache.demand_mshr_miss_rate::.cpu.inst     0.000017                       # mshr miss rate for demand accesses
system.cpu.icache.demand_mshr_miss_rate::total     0.000017                       # mshr miss rate for demand accesses
system.cpu.icache.demand_mshr_misses::.cpu.inst         1009                       # number of demand (read+write) MSHR misses
system.cpu.icache.demand_mshr_misses::total         1009                       # number of demand (read+write) MSHR misses
system.cpu.icache.overall_accesses::.cpu.inst     59230587                       # number of overall (read+write) accesses
system.cpu.icache.overall_accesses::total     59230587                       # number of overall (read+write) accesses
system.cpu.icache.overall_avg_miss_latency::.cpu.inst 87367.690783                       # average overall miss latency
system.cpu.icache.overall_avg_miss_latency::total 87367.690783                       # average overall miss latency
system.cpu.icache.overall_avg_mshr_miss_latency::.cpu.inst 86367.690783                       # average overall mshr miss latency
system.cpu.icache.overall_avg_mshr_miss_latency::total 86367.690783                       # average overall mshr miss latency
system.cpu.icache.overall_hits::.cpu.inst     59229578                       # number of overall hits
system.cpu.icache.overall_hits::total        59229578                       # number of overall hits
system.cpu.icache.overall_miss_latency::.cpu.inst     88154000                       # number of overall miss cycles
system.cpu.icache.overall_miss_latency::total     88154000                       # number of overall miss cycles
system.cpu.icache.overall_miss_rate::.cpu.inst     0.000017                       # miss rate for overall accesses
system.cpu.icache.overall_miss_rate::total     0.000017                       # miss rate for overall accesses
system.cpu.icache.overall_misses::.cpu.inst         1009                       # number of overall misses
system.cpu.icache.overall_misses::total          1009                       # number of overall misses
system.cpu.icache.overall_mshr_miss_latency::.cpu.inst     87145000                       # number of overall MSHR miss cycles
system.cpu.icache.overall_mshr_miss_latency::total     87145000                       # number of overall MSHR miss cycles
system.cpu.icache.overall_mshr_miss_rate::.cpu.inst     0.000017                       # mshr miss rate for overall accesses
system.cpu.icache.overall_mshr_miss_rate::total     0.000017                       # mshr miss rate for overall accesses
system.cpu.icache.overall_mshr_misses::.cpu.inst         1009                       # number of overall MSHR misses
system.cpu.icache.overall_mshr_misses::total         1009                       # number of overall MSHR misses
system.cpu.icache.pwrStateResidencyTicks::UNDEFINED  82719627500                       # Cumulative time (in ticks) in various power states
system.cpu.icache.replacements                    512                       # number of replacements
system.cpu.icache.tags.age_task_id_blocks_1024::0           52                       # Occupied blocks per task id
system.cpu.icache.tags.age_task_id_blocks_1024::1           29                       # Occupied blocks per task id
system.cpu.icache.tags.age_task_id_blocks_1024::3            2                       # Occupied blocks per task id
system.cpu.icache.tags.age_task_id_blocks_1024::4          414                       # Occupied blocks per task id
system.cpu.icache.tags.avg_refs          58702.266601                       # Average number of references to valid blocks.
system.cpu.icache.tags.data_accesses        118462183                       # Number of data accesses
system.cpu.icache.tags.occ_blocks::.cpu.inst   490.589032                       # Average occupied blocks per requestor
system.cpu.icache.tags.occ_percent::.cpu.inst     0.958182                       # Average percentage of cache occupancy
system.cpu.icache.tags.occ_percent::total     0.958182                       # Average percentage of cache occupancy
system.cpu.icache.tags.occ_task_id_blocks::1024          497                       # Occupied blocks per task id
system.cpu.icache.tags.occ_task_id_percent::1024     0.970703                       # Percentage of cache occupancy per task id
system.cpu.icache.tags.pwrStateResidencyTicks::UNDEFINED  82719627500                       # Cumulative time (in ticks) in various power states
system.cpu.icache.tags.sampled_refs              1009                       # Sample count of references to valid blocks.
system.cpu.icache.tags.tag_accesses         118462183                       # Number of tag accesses
system.cpu.icache.tags.tagsinuse           490.589032                       # Cycle average of tags in use
system.cpu.icache.tags.total_refs            59230587                       # Total number of references to valid blocks.
system.cpu.icache.tags.warmup_cycle             87500                       # Cycle when the warmup percentage was hit.
system.cpu.icache.writebacks::.writebacks          512                       # number of writebacks
system.cpu.icache.writebacks::total               512                       # number of writebacks
system.cpu.idle_fraction                     0.000000                       # Percentage of idle cycles
system.cpu.interrupts.pwrStateResidencyTicks::UNDEFINED  82719627500                       # Cumulative time (in ticks) in various power states
system.cpu.itb.pwrStateResidencyTicks::UNDEFINED  82719627500                       # Cumulative time (in ticks) in various power states
system.cpu.itb.rdAccesses                           0                       # TLB accesses on read requests
system.cpu.itb.rdMisses                             0                       # TLB misses on read requests
system.cpu.itb.walker.pwrStateResidencyTicks::UNDEFINED  82719627500                       # Cumulative time (in ticks) in various power states
system.cpu.itb.wrAccesses                    59230587                       # TLB accesses on write requests
system.cpu.itb.wrMisses                            85                       # TLB misses on write requests
system.cpu.itb_walker_cache.avg_blocked_cycles::no_mshrs          nan                       # average number of cycles each access was blocked
system.cpu.itb_walker_cache.avg_blocked_cycles::no_targets          nan                       # average number of cycles each access was blocked
system.cpu.itb_walker_cache.blocked::no_mshrs            0                       # number of cycles access was blocked
system.cpu.itb_walker_cache.blocked::no_targets            0                       # number of cycles access was blocked
system.cpu.itb_walker_cache.blocked_cycles::no_mshrs            0                       # number of cycles access was blocked
system.cpu.itb_walker_cache.blocked_cycles::no_targets            0                       # number of cycles access was blocked
system.cpu.itb_walker_cache.pwrStateResidencyTicks::UNDEFINED  82719627500                       # Cumulative time (in ticks) in various power states
system.cpu.itb_walker_cache.replacements            0                       # number of replacements
system.cpu.itb_walker_cache.tags.avg_refs          nan                       # Average number of references to valid blocks.
system.cpu.itb_walker_cache.tags.data_accesses            0                       # Number of data accesses
system.cpu.itb_walker_cache.tags.pwrStateResidencyTicks::UNDEFINED  82719627500                       # Cumulative time (in ticks) in various power states
system.cpu.itb_walker_cache.tags.sampled_refs            0                       # Sample count of references to valid blocks.
system.cpu.itb_walker_cache.tags.tag_accesses            0                       # Number of tag accesses
system.cpu.itb_walker_cache.tags.tagsinuse            0                       # Cycle average of tags in use
system.cpu.itb_walker_cache.tags.total_refs            0                       # Total number of references to valid blocks.
system.cpu.itb_walker_cache.tags.warmup_cycle            0                       # Cycle when the warmup percentage was hit.
system.cpu.not_idle_fraction                 1.000000                       # Percentage of non-idle cycles
system.cpu.numCycles                        165439255                       # number of cpu cycles simulated
system.cpu.numWorkItemsCompleted                    0                       # number of work items this cpu completed
system.cpu.numWorkItemsStarted                      0                       # number of work items this cpu started
system.cpu.num_busy_cycles               165439254.998000                       # Number of busy cycles
system.cpu.num_cc_register_reads             47473855                       # number of times the CC registers were read
system.cpu.num_cc_register_writes            26665422                       # number of times the CC registers were written
system.cpu.num_conditional_control_insts      7479516                       # number of instructions that are conditional controls
system.cpu.num_fp_alu_accesses                  56745                       # Number of float alu accesses
system.cpu.num_fp_insts                         56745                       # number of float instructions
system.cpu.num_fp_register_reads                38875                       # number of times the floating registers were read
system.cpu.num_fp_register_writes               25858                       # number of times the floating registers were written
system.cpu.num_func_calls                      448726                       # number of times a function call or return occured
system.cpu.num_idle_cycles                   0.002000                       # Number of idle cycles
system.cpu.num_int_alu_accesses              74127040                       # Number of integer alu accesses
system.cpu.num_int_insts                     74127040                       # number of integer instructions
system.cpu.num_int_register_reads           140864614                       # number of times the integer registers were read
system.cpu.num_int_register_writes           63148396                       # number of times the integer registers were written
system.cpu.num_load_insts                     8769727                       # Number of load instructions
system.cpu.num_mem_refs                      11492196                       # number of memory refs
system.cpu.num_store_insts                    2722469                       # Number of store instructions
system.cpu.num_vec_alu_accesses                     0                       # Number of vector alu accesses
system.cpu.num_vec_insts                            0                       # number of vector instructions
system.cpu.num_vec_register_reads                   0                       # number of times the vector registers were read
system.cpu.num_vec_register_writes                  0                       # number of times the vector registers were written
system.cpu.op_class::No_OpClass                  2134      0.00%      0.00% # Class of executed instruction
system.cpu.op_class::IntAlu                  62630537     84.48%     84.49% # Class of executed instruction
system.cpu.op_class::IntMult                     1641      0.00%     84.49% # Class of executed instruction
system.cpu.op_class::IntDiv                      1555      0.00%     84.49% # Class of executed instruction
system.cpu.op_class::FloatAdd                     238      0.00%     84.49% # Class of executed instruction
system.cpu.op_class::FloatCmp                       0      0.00%     84.49% # Class of executed instruction
system.cpu.op_class::FloatCvt                     400      0.00%     84.49% # Class of executed instruction
system.cpu.op_class::FloatMult                      0      0.00%     84.49% # Class of executed instruction
system.cpu.op_class::FloatMultAcc                   0      0.00%     84.49% # Class of executed instruction
system.cpu.op_class::FloatDiv                       0      0.00%     84.49% # Class of executed instruction
system.cpu.op_class::FloatMisc                      0      0.00%     84.49% # Class of executed instruction
system.cpu.op_class::FloatSqrt                      0      0.00%     84.49% # Class of executed instruction
system.cpu.op_class::SimdAdd                      552      0.00%     84.49% # Class of executed instruction
system.cpu.op_class::SimdAddAcc                     0      0.00%     84.49% # Class of executed instruction
system.cpu.op_class::SimdAlu                      795      0.00%     84.49% # Class of executed instruction
system.cpu.op_class::SimdCmp                        0      0.00%     84.49% # Class of executed instruction
system.cpu.op_class::SimdCvt                     1242      0.00%     84.50% # Class of executed instruction
system.cpu.op_class::SimdMisc                     813      0.00%     84.50% # Class of executed instruction
system.cpu.op_class::SimdMult                       0      0.00%     84.50% # Class of executed instruction
system.cpu.op_class::SimdMultAcc                    0      0.00%     84.50% # Class of executed instruction
system.cpu.op_class::SimdShift                    323      0.00%     84.50% # Class of executed instruction
system.cpu.op_class::SimdShiftAcc                   0      0.00%     84.50% # Class of executed instruction
system.cpu.op_class::SimdDiv                        0      0.00%     84.50% # Class of executed instruction
system.cpu.op_class::SimdSqrt                       0      0.00%     84.50% # Class of executed instruction
system.cpu.op_class::SimdFloatAdd                   0      0.00%     84.50% # Class of executed instruction
system.cpu.op_class::SimdFloatAlu                   0      0.00%     84.50% # Class of executed instruction
system.cpu.op_class::SimdFloatCmp                   0      0.00%     84.50% # Class of executed instruction
system.cpu.op_class::SimdFloatCvt                   0      0.00%     84.50% # Class of executed instruction
system.cpu.op_class::SimdFloatDiv                   0      0.00%     84.50% # Class of executed instruction
system.cpu.op_class::SimdFloatMisc                  0      0.00%     84.50% # Class of executed instruction
system.cpu.op_class::SimdFloatMult                  0      0.00%     84.50% # Class of executed instruction
system.cpu.op_class::SimdFloatMultAcc               0      0.00%     84.50% # Class of executed instruction
system.cpu.op_class::SimdFloatSqrt                  0      0.00%     84.50% # Class of executed instruction
system.cpu.op_class::SimdReduceAdd                  0      0.00%     84.50% # Class of executed instruction
system.cpu.op_class::SimdReduceAlu                  0      0.00%     84.50% # Class of executed instruction
system.cpu.op_class::SimdReduceCmp                  0      0.00%     84.50% # Class of executed instruction
system.cpu.op_class::SimdFloatReduceAdd             0      0.00%     84.50% # Class of executed instruction
system.cpu.op_class::SimdFloatReduceCmp             0      0.00%     84.50% # Class of executed instruction
system.cpu.op_class::SimdAes                        0      0.00%     84.50% # Class of executed instruction
system.cpu.op_class::SimdAesMix                     0      0.00%     84.50% # Class of executed instruction
system.cpu.op_class::SimdSha1Hash                   0      0.00%     84.50% # Class of executed instruction
system.cpu.op_class::SimdSha1Hash2                  0      0.00%     84.50% # Class of executed instruction
system.cpu.op_class::SimdSha256Hash                 0      0.00%     84.50% # Class of executed instruction
system.cpu.op_class::SimdSha256Hash2                0      0.00%     84.50% # Class of executed instruction
system.cpu.op_class::SimdShaSigma2                  0      0.00%     84.50% # Class of executed instruction
system.cpu.op_class::SimdShaSigma3                  0      0.00%     84.50% # Class of executed instruction
system.cpu.op_class::SimdPredAlu                    0      0.00%     84.50% # Class of executed instruction
system.cpu.op_class::MemRead                  8747213     11.80%     96.30% # Class of executed instruction
system.cpu.op_class::MemWrite                 2692669      3.63%     99.93% # Class of executed instruction
system.cpu.op_class::FloatMemRead               22514      0.03%     99.96% # Class of executed instruction
system.cpu.op_class::FloatMemWrite              29800      0.04%    100.00% # Class of executed instruction
system.cpu.op_class::IprAccess                      0      0.00%    100.00% # Class of executed instruction
system.cpu.op_class::InstPrefetch                   0      0.00%    100.00% # Class of executed instruction
system.cpu.op_class::total                   74132426                       # Class of executed instruction
system.cpu.pwrStateResidencyTicks::ON     82719627500                       # Cumulative time (in ticks) in various power states
system.cpu.workload.numSyscalls                    59                       # Number of system calls
system.cpu_clk_domain.clock                       500                       # Clock period in ticks
system.cpu_voltage_domain.voltage                   1                       # Voltage in Volts
system.l2.ReadCleanReq_accesses::.cpu.inst         1009                       # number of ReadCleanReq accesses(hits+misses)
system.l2.ReadCleanReq_accesses::total           1009                       # number of ReadCleanReq accesses(hits+misses)
system.l2.ReadCleanReq_avg_miss_latency::.cpu.inst 88494.282744                       # average ReadCleanReq miss latency
system.l2.ReadCleanReq_avg_miss_latency::total 88494.282744                       # average ReadCleanReq miss latency
system.l2.ReadCleanReq_avg_mshr_miss_latency::.cpu.inst 78494.282744                       # average ReadCleanReq mshr miss latency
system.l2.ReadCleanReq_avg_mshr_miss_latency::total 78494.282744                       # average ReadCleanReq mshr miss latency
system.l2.ReadCleanReq_hits::.cpu.inst             47                       # number of ReadCleanReq hits
system.l2.ReadCleanReq_hits::total                 47                       # number of ReadCleanReq hits
system.l2.ReadCleanReq_miss_latency::.cpu.inst     85131500                       # number of ReadCleanReq miss cycles
system.l2.ReadCleanReq_miss_latency::total     85131500                       # number of ReadCleanReq miss cycles
system.l2.ReadCleanReq_miss_rate::.cpu.inst     0.953419                       # miss rate for ReadCleanReq accesses
system.l2.ReadCleanReq_miss_rate::total      0.953419                       # miss rate for ReadCleanReq accesses
system.l2.ReadCleanReq_misses::.cpu.inst          962                       # number of ReadCleanReq misses
system.l2.ReadCleanReq_misses::total              962                       # number of ReadCleanReq misses
system.l2.ReadCleanReq_mshr_miss_latency::.cpu.inst     75511500                       # number of ReadCleanReq MSHR miss cycles
system.l2.ReadCleanReq_mshr_miss_latency::total     75511500                       # number of ReadCleanReq MSHR miss cycles
system.l2.ReadCleanReq_mshr_miss_rate::.cpu.inst     0.953419                       # mshr miss rate for ReadCleanReq accesses
system.l2.ReadCleanReq_mshr_miss_rate::total     0.953419                       # mshr miss rate for ReadCleanReq accesses
system.l2.ReadCleanReq_mshr_misses::.cpu.inst          962                       # number of ReadCleanReq MSHR misses
system.l2.ReadCleanReq_mshr_misses::total          962                       # number of ReadCleanReq MSHR misses
system.l2.ReadExReq_accesses::.cpu.data         15367                       # number of ReadExReq accesses(hits+misses)
system.l2.ReadExReq_accesses::total             15367                       # number of ReadExReq accesses(hits+misses)
system.l2.ReadExReq_avg_miss_latency::.cpu.data 194334.223239                       # average ReadExReq miss latency
system.l2.ReadExReq_avg_miss_latency::total 194334.223239                       # average ReadExReq miss latency
system.l2.ReadExReq_avg_mshr_miss_latency::.cpu.data 184334.223239                       # average ReadExReq mshr miss latency
system.l2.ReadExReq_avg_mshr_miss_latency::total 184334.223239                       # average ReadExReq mshr miss latency
system.l2.ReadExReq_hits::.cpu.data             11434                       # number of ReadExReq hits
system.l2.ReadExReq_hits::total                 11434                       # number of ReadExReq hits
system.l2.ReadExReq_miss_latency::.cpu.data    764316500                       # number of ReadExReq miss cycles
system.l2.ReadExReq_miss_latency::total     764316500                       # number of ReadExReq miss cycles
system.l2.ReadExReq_miss_rate::.cpu.data     0.255938                       # miss rate for ReadExReq accesses
system.l2.ReadExReq_miss_rate::total         0.255938                       # miss rate for ReadExReq accesses
system.l2.ReadExReq_misses::.cpu.data            3933                       # number of ReadExReq misses
system.l2.ReadExReq_misses::total                3933                       # number of ReadExReq misses
system.l2.ReadExReq_mshr_miss_latency::.cpu.data    724986500                       # number of ReadExReq MSHR miss cycles
system.l2.ReadExReq_mshr_miss_latency::total    724986500                       # number of ReadExReq MSHR miss cycles
system.l2.ReadExReq_mshr_miss_rate::.cpu.data     0.255938                       # mshr miss rate for ReadExReq accesses
system.l2.ReadExReq_mshr_miss_rate::total     0.255938                       # mshr miss rate for ReadExReq accesses
system.l2.ReadExReq_mshr_misses::.cpu.data         3933                       # number of ReadExReq MSHR misses
system.l2.ReadExReq_mshr_misses::total           3933                       # number of ReadExReq MSHR misses
system.l2.ReadSharedReq_accesses::.cpu.data       902586                       # number of ReadSharedReq accesses(hits+misses)
system.l2.ReadSharedReq_accesses::total        902586                       # number of ReadSharedReq accesses(hits+misses)
system.l2.ReadSharedReq_avg_miss_latency::.cpu.data 85575.011297                       # average ReadSharedReq miss latency
system.l2.ReadSharedReq_avg_miss_latency::total 85575.011297                       # average ReadSharedReq miss latency
system.l2.ReadSharedReq_avg_mshr_miss_latency::.cpu.data 75575.011297                       # average ReadSharedReq mshr miss latency
system.l2.ReadSharedReq_avg_mshr_miss_latency::total 75575.011297                       # average ReadSharedReq mshr miss latency
system.l2.ReadSharedReq_hits::.cpu.data        900373                       # number of ReadSharedReq hits
system.l2.ReadSharedReq_hits::total            900373                       # number of ReadSharedReq hits
system.l2.ReadSharedReq_miss_latency::.cpu.data    189377500                       # number of ReadSharedReq miss cycles
system.l2.ReadSharedReq_miss_latency::total    189377500                       # number of ReadSharedReq miss cycles
system.l2.ReadSharedReq_miss_rate::.cpu.data     0.002452                       # miss rate for ReadSharedReq accesses
system.l2.ReadSharedReq_miss_rate::total     0.002452                       # miss rate for ReadSharedReq accesses
system.l2.ReadSharedReq_misses::.cpu.data         2213                       # number of ReadSharedReq misses
system.l2.ReadSharedReq_misses::total            2213                       # number of ReadSharedReq misses
system.l2.ReadSharedReq_mshr_miss_latency::.cpu.data    167247500                       # number of ReadSharedReq MSHR miss cycles
system.l2.ReadSharedReq_mshr_miss_latency::total    167247500                       # number of ReadSharedReq MSHR miss cycles
system.l2.ReadSharedReq_mshr_miss_rate::.cpu.data     0.002452                       # mshr miss rate for ReadSharedReq accesses
system.l2.ReadSharedReq_mshr_miss_rate::total     0.002452                       # mshr miss rate for ReadSharedReq accesses
system.l2.ReadSharedReq_mshr_misses::.cpu.data         2213                       # number of ReadSharedReq MSHR misses
system.l2.ReadSharedReq_mshr_misses::total         2213                       # number of ReadSharedReq MSHR misses
system.l2.WritebackClean_accesses::.writebacks          512                       # number of WritebackClean accesses(hits+misses)
system.l2.WritebackClean_accesses::total          512                       # number of WritebackClean accesses(hits+misses)
system.l2.WritebackClean_hits::.writebacks          512                       # number of WritebackClean hits
system.l2.WritebackClean_hits::total              512                       # number of WritebackClean hits
system.l2.WritebackDirty_accesses::.writebacks       766384                       # number of WritebackDirty accesses(hits+misses)
system.l2.WritebackDirty_accesses::total       766384                       # number of WritebackDirty accesses(hits+misses)
system.l2.WritebackDirty_hits::.writebacks       766384                       # number of WritebackDirty hits
system.l2.WritebackDirty_hits::total           766384                       # number of WritebackDirty hits
system.l2.avg_blocked_cycles::no_mshrs            nan                       # average number of cycles each access was blocked
system.l2.avg_blocked_cycles::no_targets          nan                       # average number of cycles each access was blocked
system.l2.blocked::no_mshrs                         0                       # number of cycles access was blocked
system.l2.blocked::no_targets                       0                       # number of cycles access was blocked
system.l2.blocked_cycles::no_mshrs                  0                       # number of cycles access was blocked
system.l2.blocked_cycles::no_targets                0                       # number of cycles access was blocked
system.l2.demand_accesses::.cpu.inst             1009                       # number of demand (read+write) accesses
system.l2.demand_accesses::.cpu.data           917953                       # number of demand (read+write) accesses
system.l2.demand_accesses::total               918962                       # number of demand (read+write) accesses
system.l2.demand_avg_miss_latency::.cpu.inst 88494.282744                       # average overall miss latency
system.l2.demand_avg_miss_latency::.cpu.data 155173.120729                       # average overall miss latency
system.l2.demand_avg_miss_latency::total 146148.776027                       # average overall miss latency
system.l2.demand_avg_mshr_miss_latency::.cpu.inst 78494.282744                       # average overall mshr miss latency
system.l2.demand_avg_mshr_miss_latency::.cpu.data 145173.120729                       # average overall mshr miss latency
system.l2.demand_avg_mshr_miss_latency::total 136148.776027                       # average overall mshr miss latency
system.l2.demand_hits::.cpu.inst                   47                       # number of demand (read+write) hits
system.l2.demand_hits::.cpu.data               911807                       # number of demand (read+write) hits
system.l2.demand_hits::total                   911854                       # number of demand (read+write) hits
system.l2.demand_miss_latency::.cpu.inst     85131500                       # number of demand (read+write) miss cycles
system.l2.demand_miss_latency::.cpu.data    953694000                       # number of demand (read+write) miss cycles
system.l2.demand_miss_latency::total       1038825500                       # number of demand (read+write) miss cycles
system.l2.demand_miss_rate::.cpu.inst        0.953419                       # miss rate for demand accesses
system.l2.demand_miss_rate::.cpu.data        0.006695                       # miss rate for demand accesses
system.l2.demand_miss_rate::total            0.007735                       # miss rate for demand accesses
system.l2.demand_misses::.cpu.inst                962                       # number of demand (read+write) misses
system.l2.demand_misses::.cpu.data               6146                       # number of demand (read+write) misses
system.l2.demand_misses::total                   7108                       # number of demand (read+write) misses
system.l2.demand_mshr_miss_latency::.cpu.inst     75511500                       # number of demand (read+write) MSHR miss cycles
system.l2.demand_mshr_miss_latency::.cpu.data    892234000                       # number of demand (read+write) MSHR miss cycles
system.l2.demand_mshr_miss_latency::total    967745500                       # number of demand (read+write) MSHR miss cycles
system.l2.demand_mshr_miss_rate::.cpu.inst     0.953419                       # mshr miss rate for demand accesses
system.l2.demand_mshr_miss_rate::.cpu.data     0.006695                       # mshr miss rate for demand accesses
system.l2.demand_mshr_miss_rate::total       0.007735                       # mshr miss rate for demand accesses
system.l2.demand_mshr_misses::.cpu.inst           962                       # number of demand (read+write) MSHR misses
system.l2.demand_mshr_misses::.cpu.data          6146                       # number of demand (read+write) MSHR misses
system.l2.demand_mshr_misses::total              7108                       # number of demand (read+write) MSHR misses
system.l2.overall_accesses::.cpu.inst            1009                       # number of overall (read+write) accesses
system.l2.overall_accesses::.cpu.data          917953                       # number of overall (read+write) accesses
system.l2.overall_accesses::total              918962                       # number of overall (read+write) accesses
system.l2.overall_avg_miss_latency::.cpu.inst 88494.282744                       # average overall miss latency
system.l2.overall_avg_miss_latency::.cpu.data 155173.120729                       # average overall miss latency
system.l2.overall_avg_miss_latency::total 146148.776027                       # average overall miss latency
system.l2.overall_avg_mshr_miss_latency::.cpu.inst 78494.282744                       # average overall mshr miss latency
system.l2.overall_avg_mshr_miss_latency::.cpu.data 145173.120729                       # average overall mshr miss latency
system.l2.overall_avg_mshr_miss_latency::total 136148.776027                       # average overall mshr miss latency
system.l2.overall_hits::.cpu.inst                  47                       # number of overall hits
system.l2.overall_hits::.cpu.data              911807                       # number of overall hits
system.l2.overall_hits::total                  911854                       # number of overall hits
system.l2.overall_miss_latency::.cpu.inst     85131500                       # number of overall miss cycles
system.l2.overall_miss_latency::.cpu.data    953694000                       # number of overall miss cycles
system.l2.overall_miss_latency::total      1038825500                       # number of overall miss cycles
system.l2.overall_miss_rate::.cpu.inst       0.953419                       # miss rate for overall accesses
system.l2.overall_miss_rate::.cpu.data       0.006695                       # miss rate for overall accesses
system.l2.overall_miss_rate::total           0.007735                       # miss rate for overall accesses
system.l2.overall_misses::.cpu.inst               962                       # number of overall misses
system.l2.overall_misses::.cpu.data              6146                       # number of overall misses
system.l2.overall_misses::total                  7108                       # number of overall misses
system.l2.overall_mshr_miss_latency::.cpu.inst     75511500                       # number of overall MSHR miss cycles
system.l2.overall_mshr_miss_latency::.cpu.data    892234000                       # number of overall MSHR miss cycles
system.l2.overall_mshr_miss_latency::total    967745500                       # number of overall MSHR miss cycles
system.l2.overall_mshr_miss_rate::.cpu.inst     0.953419                       # mshr miss rate for overall accesses
system.l2.overall_mshr_miss_rate::.cpu.data     0.006695                       # mshr miss rate for overall accesses
system.l2.overall_mshr_miss_rate::total      0.007735                       # mshr miss rate for overall accesses
system.l2.overall_mshr_misses::.cpu.inst          962                       # number of overall MSHR misses
system.l2.overall_mshr_misses::.cpu.data         6146                       # number of overall MSHR misses
system.l2.overall_mshr_misses::total             7108                       # number of overall MSHR misses
system.l2.pwrStateResidencyTicks::UNDEFINED  82719627500                       # Cumulative time (in ticks) in various power states
system.l2.replacements                              0                       # number of replacements
system.l2.tags.age_task_id_blocks_1024::0           58                       # Occupied blocks per task id
system.l2.tags.age_task_id_blocks_1024::1           36                       # Occupied blocks per task id
system.l2.tags.age_task_id_blocks_1024::3          138                       # Occupied blocks per task id
system.l2.tags.age_task_id_blocks_1024::4         6876                       # Occupied blocks per task id
system.l2.tags.avg_refs                    258.356922                       # Average number of references to valid blocks.
system.l2.tags.data_accesses                 14698316                       # Number of data accesses
system.l2.tags.occ_blocks::.cpu.inst       870.263772                       # Average occupied blocks per requestor
system.l2.tags.occ_blocks::.cpu.data      5511.410413                       # Average occupied blocks per requestor
system.l2.tags.occ_percent::.cpu.inst        0.026558                       # Average percentage of cache occupancy
system.l2.tags.occ_percent::.cpu.data        0.168195                       # Average percentage of cache occupancy
system.l2.tags.occ_percent::total            0.194753                       # Average percentage of cache occupancy
system.l2.tags.occ_task_id_blocks::1024          7108                       # Occupied blocks per task id
system.l2.tags.occ_task_id_percent::1024     0.216919                       # Percentage of cache occupancy per task id
system.l2.tags.pwrStateResidencyTicks::UNDEFINED  82719627500                       # Cumulative time (in ticks) in various power states
system.l2.tags.sampled_refs                      7108                       # Sample count of references to valid blocks.
system.l2.tags.tag_accesses                  14698316                       # Number of tag accesses
system.l2.tags.tagsinuse                  6381.674184                       # Cycle average of tags in use
system.l2.tags.total_refs                     1836401                       # Total number of references to valid blocks.
system.l2.tags.warmup_cycle                     77000                       # Cycle when the warmup percentage was hit.
system.mem_ctrls.avgBusLat                    5000.00                       # Average bus latency per DRAM burst
system.mem_ctrls.avgGap                   11637527.79                       # Average gap between requests
system.mem_ctrls.avgMemAccLat                95318.73                       # Average memory access latency per DRAM burst
system.mem_ctrls.avgPriority_.cpu.inst::samples       962.00                       # Average QoS priority value for accepted requests
system.mem_ctrls.avgPriority_.cpu.data::samples      6146.00                       # Average QoS priority value for accepted requests
system.mem_ctrls.avgQLat                     76568.73                       # Average queueing delay per DRAM burst
system.mem_ctrls.avgRdBW                         5.50                       # Average DRAM read bandwidth in MiByte/s
system.mem_ctrls.avgRdBWSys                      5.50                       # Average system read bandwidth in MiByte/s
system.mem_ctrls.avgRdQLen                       1.00                       # Average read queue length when enqueuing
system.mem_ctrls.avgWrBW                         0.00                       # Average achieved write bandwidth in MiByte/s
system.mem_ctrls.avgWrBWSys                      0.00                       # Average system write bandwidth in MiByte/s
system.mem_ctrls.avgWrQLen                       0.00                       # Average write queue length when enqueuing
system.mem_ctrls.busUtil                         0.04                       # Data bus utilization in percentage
system.mem_ctrls.busUtilRead                     0.04                       # Data bus utilization in percentage for reads
system.mem_ctrls.busUtilWrite                    0.00                       # Data bus utilization in percentage for writes
system.mem_ctrls.bw_inst_read::.cpu.inst       744297                       # Instruction read bandwidth from this memory (bytes/s)
system.mem_ctrls.bw_inst_read::total           744297                       # Instruction read bandwidth from this memory (bytes/s)
system.mem_ctrls.bw_read::.cpu.inst            744297                       # Total read bandwidth from this memory (bytes/s)
system.mem_ctrls.bw_read::.cpu.data           4755147                       # Total read bandwidth from this memory (bytes/s)
system.mem_ctrls.bw_read::total               5499444                       # Total read bandwidth from this memory (bytes/s)
system.mem_ctrls.bw_total::.cpu.inst           744297                       # Total bandwidth to/from this memory (bytes/s)
system.mem_ctrls.bw_total::.cpu.data          4755147                       # Total bandwidth to/from this memory (bytes/s)
system.mem_ctrls.bw_total::total              5499444                       # Total bandwidth to/from this memory (bytes/s)
system.mem_ctrls.bytesPerActivate::samples         2952                       # Bytes accessed per row activation
system.mem_ctrls.bytesPerActivate::mean    153.669377                       # Bytes accessed per row activation
system.mem_ctrls.bytesPerActivate::gmean    97.061811                       # Bytes accessed per row activation
system.mem_ctrls.bytesPerActivate::stdev   217.668740                       # Bytes accessed per row activation
system.mem_ctrls.bytesPerActivate::0-127         2111     71.51%     71.51% # Bytes accessed per row activation
system.mem_ctrls.bytesPerActivate::128-255          419     14.19%     85.70% # Bytes accessed per row activation
system.mem_ctrls.bytesPerActivate::256-383           87      2.95%     88.65% # Bytes accessed per row activation
system.mem_ctrls.bytesPerActivate::384-511           46      1.56%     90.21% # Bytes accessed per row activation
system.mem_ctrls.bytesPerActivate::512-639          139      4.71%     94.92% # Bytes accessed per row activation
system.mem_ctrls.bytesPerActivate::640-767           18      0.61%     95.53% # Bytes accessed per row activation
system.mem_ctrls.bytesPerActivate::768-895           14      0.47%     96.00% # Bytes accessed per row activation
system.mem_ctrls.bytesPerActivate::896-1023           20      0.68%     96.68% # Bytes accessed per row activation
system.mem_ctrls.bytesPerActivate::1024-1151           98      3.32%    100.00% # Bytes accessed per row activation
system.mem_ctrls.bytesPerActivate::total         2952                       # Bytes accessed per row activation
system.mem_ctrls.bytesReadDRAM                 454912                       # Total number of bytes read from DRAM
system.mem_ctrls.bytesReadSys                  454912                       # Total read bytes from the system interface side
system.mem_ctrls.bytesReadWrQ                       0                       # Total number of bytes read from write queue
system.mem_ctrls.bytesWritten                       0                       # Total number of bytes written to DRAM
system.mem_ctrls.bytesWrittenSys                    0                       # Total written bytes from the system interface side
system.mem_ctrls.bytes_inst_read::.cpu.inst        61568                       # Number of instructions bytes read from this memory
system.mem_ctrls.bytes_inst_read::total         61568                       # Number of instructions bytes read from this memory
system.mem_ctrls.bytes_read::.cpu.inst          61568                       # Number of bytes read from this memory
system.mem_ctrls.bytes_read::.cpu.data         393344                       # Number of bytes read from this memory
system.mem_ctrls.bytes_read::total             454912                       # Number of bytes read from this memory
system.mem_ctrls.masterReadAccesses::.cpu.inst          962                       # Per-master read serviced memory accesses
system.mem_ctrls.masterReadAccesses::.cpu.data         6146                       # Per-master read serviced memory accesses
system.mem_ctrls.masterReadAvgLat::.cpu.inst     37668.92                       # Per-master read average memory access latency
system.mem_ctrls.masterReadAvgLat::.cpu.data    104342.34                       # Per-master read average memory access latency
system.mem_ctrls.masterReadBytes::.cpu.inst        61568                       # Per-master bytes read from memory
system.mem_ctrls.masterReadBytes::.cpu.data       393344                       # Per-master bytes read from memory
system.mem_ctrls.masterReadRate::.cpu.inst 744297.355545997852                       # Per-master bytes read from memory rate (Bytes/sec)
system.mem_ctrls.masterReadRate::.cpu.data 4755147.138446676545                       # Per-master bytes read from memory rate (Bytes/sec)
system.mem_ctrls.masterReadTotalLat::.cpu.inst     36237500                       # Per-master read total memory access latency
system.mem_ctrls.masterReadTotalLat::.cpu.data    641288000                       # Per-master read total memory access latency
system.mem_ctrls.mergedWrBursts                     0                       # Number of DRAM write bursts merged with an existing one
system.mem_ctrls.neitherReadNorWriteReqs            0                       # Number of requests that are neither read nor write
system.mem_ctrls.numRdRetry                         0                       # Number of times read queue was full causing retry
system.mem_ctrls.numReadWriteTurnArounds            0                       # Number of turnarounds from READ to WRITE
system.mem_ctrls.numStayReadState               17097                       # Number of times bus staying in READ state
system.mem_ctrls.numStayWriteState                  0                       # Number of times bus staying in WRITE state
system.mem_ctrls.numWrRetry                         0                       # Number of times write queue was full causing retry
system.mem_ctrls.numWriteReadTurnArounds            0                       # Number of turnarounds from WRITE to READ
system.mem_ctrls.num_reads::.cpu.inst             962                       # Number of read requests responded to by this memory
system.mem_ctrls.num_reads::.cpu.data            6146                       # Number of read requests responded to by this memory
system.mem_ctrls.num_reads::total                7108                       # Number of read requests responded to by this memory
system.mem_ctrls.pageHitRate                    58.41                       # Row buffer hit rate, read and write combined
system.mem_ctrls.peakBW                      12800.00                       # Theoretical peak bandwidth in MiByte/s
system.mem_ctrls.perBankRdBursts::0               444                       # Per bank write bursts
system.mem_ctrls.perBankRdBursts::1               497                       # Per bank write bursts
system.mem_ctrls.perBankRdBursts::2               565                       # Per bank write bursts
system.mem_ctrls.perBankRdBursts::3               446                       # Per bank write bursts
system.mem_ctrls.perBankRdBursts::4               438                       # Per bank write bursts
system.mem_ctrls.perBankRdBursts::5               333                       # Per bank write bursts
system.mem_ctrls.perBankRdBursts::6               366                       # Per bank write bursts
system.mem_ctrls.perBankRdBursts::7               451                       # Per bank write bursts
system.mem_ctrls.perBankRdBursts::8               512                       # Per bank write bursts
system.mem_ctrls.perBankRdBursts::9               561                       # Per bank write bursts
system.mem_ctrls.perBankRdBursts::10              489                       # Per bank write bursts
system.mem_ctrls.perBankRdBursts::11              442                       # Per bank write bursts
system.mem_ctrls.perBankRdBursts::12              428                       # Per bank write bursts
system.mem_ctrls.perBankRdBursts::13              413                       # Per bank write bursts
system.mem_ctrls.perBankRdBursts::14              387                       # Per bank write bursts
system.mem_ctrls.perBankRdBursts::15              336                       # Per bank write bursts
system.mem_ctrls.perBankWrBursts::0                 0                       # Per bank write bursts
system.mem_ctrls.perBankWrBursts::1                 0                       # Per bank write bursts
system.mem_ctrls.perBankWrBursts::2                 0                       # Per bank write bursts
system.mem_ctrls.perBankWrBursts::3                 0                       # Per bank write bursts
system.mem_ctrls.perBankWrBursts::4                 0                       # Per bank write bursts
system.mem_ctrls.perBankWrBursts::5                 0                       # Per bank write bursts
system.mem_ctrls.perBankWrBursts::6                 0                       # Per bank write bursts
system.mem_ctrls.perBankWrBursts::7                 0                       # Per bank write bursts
system.mem_ctrls.perBankWrBursts::8                 0                       # Per bank write bursts
system.mem_ctrls.perBankWrBursts::9                 0                       # Per bank write bursts
system.mem_ctrls.perBankWrBursts::10                0                       # Per bank write bursts
system.mem_ctrls.perBankWrBursts::11                0                       # Per bank write bursts
system.mem_ctrls.perBankWrBursts::12                0                       # Per bank write bursts
system.mem_ctrls.perBankWrBursts::13                0                       # Per bank write bursts
system.mem_ctrls.perBankWrBursts::14                0                       # Per bank write bursts
system.mem_ctrls.perBankWrBursts::15                0                       # Per bank write bursts
system.mem_ctrls.priorityMaxLatency      0.000001099750                       # per QoS priority maximum request to response latency (s)
system.mem_ctrls.priorityMinLatency      0.000000018750                       # per QoS priority minimum request to response latency (s)
system.mem_ctrls.pwrStateResidencyTicks::UNDEFINED  82719627500                       # Cumulative time (in ticks) in various power states
system.mem_ctrls.rdQLenPdf::0                    7108                       # What read queue length does an incoming req see
system.mem_ctrls.rdQLenPdf::1                       0                       # What read queue length does an incoming req see
system.mem_ctrls.rdQLenPdf::2                       0                       # What read queue length does an incoming req see
system.mem_ctrls.rdQLenPdf::3                       0                       # What read queue length does an incoming req see
system.mem_ctrls.rdQLenPdf::4                       0                       # What read queue length does an incoming req see
system.mem_ctrls.rdQLenPdf::5                       0                       # What read queue length does an incoming req see
system.mem_ctrls.rdQLenPdf::6                       0                       # What read queue length does an incoming req see
system.mem_ctrls.rdQLenPdf::7                       0                       # What read queue length does an incoming req see
system.mem_ctrls.rdQLenPdf::8                       0                       # What read queue length does an incoming req see
system.mem_ctrls.rdQLenPdf::9                       0                       # What read queue length does an incoming req see
system.mem_ctrls.rdQLenPdf::10                      0                       # What read queue length does an incoming req see
system.mem_ctrls.rdQLenPdf::11                      0                       # What read queue length does an incoming req see
system.mem_ctrls.rdQLenPdf::12                      0                       # What read queue length does an incoming req see
system.mem_ctrls.rdQLenPdf::13                      0                       # What read queue length does an incoming req see
system.mem_ctrls.rdQLenPdf::14                      0                       # What read queue length does an incoming req see
system.mem_ctrls.rdQLenPdf::15                      0                       # What read queue length does an incoming req see
system.mem_ctrls.rdQLenPdf::16                      0                       # What read queue length does an incoming req see
system.mem_ctrls.rdQLenPdf::17                      0                       # What read queue length does an incoming req see
system.mem_ctrls.rdQLenPdf::18                      0                       # What read queue length does an incoming req see
system.mem_ctrls.rdQLenPdf::19                      0                       # What read queue length does an incoming req see
system.mem_ctrls.rdQLenPdf::20                      0                       # What read queue length does an incoming req see
system.mem_ctrls.rdQLenPdf::21                      0                       # What read queue length does an incoming req see
system.mem_ctrls.rdQLenPdf::22                      0                       # What read queue length does an incoming req see
system.mem_ctrls.rdQLenPdf::23                      0                       # What read queue length does an incoming req see
system.mem_ctrls.rdQLenPdf::24                      0                       # What read queue length does an incoming req see
system.mem_ctrls.rdQLenPdf::25                      0                       # What read queue length does an incoming req see
system.mem_ctrls.rdQLenPdf::26                      0                       # What read queue length does an incoming req see
system.mem_ctrls.rdQLenPdf::27                      0                       # What read queue length does an incoming req see
system.mem_ctrls.rdQLenPdf::28                      0                       # What read queue length does an incoming req see
system.mem_ctrls.rdQLenPdf::29                      0                       # What read queue length does an incoming req see
system.mem_ctrls.rdQLenPdf::30                      0                       # What read queue length does an incoming req see
system.mem_ctrls.rdQLenPdf::31                      0                       # What read queue length does an incoming req see
system.mem_ctrls.readBursts                      7108                       # Number of DRAM read bursts, including those serviced by the write queue
system.mem_ctrls.readPktSize::0                     0                       # Read request sizes (log2)
system.mem_ctrls.readPktSize::1                     0                       # Read request sizes (log2)
system.mem_ctrls.readPktSize::2                     0                       # Read request sizes (log2)
system.mem_ctrls.readPktSize::3                     0                       # Read request sizes (log2)
system.mem_ctrls.readPktSize::4                     0                       # Read request sizes (log2)
system.mem_ctrls.readPktSize::5                     0                       # Read request sizes (log2)
system.mem_ctrls.readPktSize::6                  7108                       # Read request sizes (log2)
system.mem_ctrls.readReqs                        7108                       # Number of read requests accepted
system.mem_ctrls.readRowHitRate                 58.41                       # Row buffer hit rate for reads
system.mem_ctrls.readRowHits                     4152                       # Number of row buffer hits during reads
system.mem_ctrls.servicedByWrQ                      0                       # Number of DRAM read bursts serviced by the write queue
system.mem_ctrls.totBusLat                   35540000                       # Total ticks spent in databus transfers
system.mem_ctrls.totGap                   82719547500                       # Total gap between requests
system.mem_ctrls.totMemAccLat               677525500                       # Total ticks spent from burst creation until serviced by the DRAM
system.mem_ctrls.totQLat                    544250500                       # Total ticks spent queuing
system.mem_ctrls.wrQLenPdf::0                       0                       # What write queue length does an incoming req see
system.mem_ctrls.wrQLenPdf::1                       0                       # What write queue length does an incoming req see
system.mem_ctrls.wrQLenPdf::2                       0                       # What write queue length does an incoming req see
system.mem_ctrls.wrQLenPdf::3                       0                       # What write queue length does an incoming req see
system.mem_ctrls.wrQLenPdf::4                       0                       # What write queue length does an incoming req see
system.mem_ctrls.wrQLenPdf::5                       0                       # What write queue length does an incoming req see
system.mem_ctrls.wrQLenPdf::6                       0                       # What write queue length does an incoming req see
system.mem_ctrls.wrQLenPdf::7                       0                       # What write queue length does an incoming req see
system.mem_ctrls.wrQLenPdf::8                       0                       # What write queue length does an incoming req see
system.mem_ctrls.wrQLenPdf::9                       0                       # What write queue length does an incoming req see
system.mem_ctrls.wrQLenPdf::10                      0                       # What write queue length does an incoming req see
system.mem_ctrls.wrQLenPdf::11                      0                       # What write queue length does an incoming req see
system.mem_ctrls.wrQLenPdf::12                      0                       # What write queue length does an incoming req see
system.mem_ctrls.wrQLenPdf::13                      0                       # What write queue length does an incoming req see
system.mem_ctrls.wrQLenPdf::14                      0                       # What write queue length does an incoming req see
system.mem_ctrls.wrQLenPdf::15                      0                       # What write queue length does an incoming req see
system.mem_ctrls.wrQLenPdf::16                      0                       # What write queue length does an incoming req see
system.mem_ctrls.wrQLenPdf::17                      0                       # What write queue length does an incoming req see
system.mem_ctrls.wrQLenPdf::18                      0                       # What write queue length does an incoming req see
system.mem_ctrls.wrQLenPdf::19                      0                       # What write queue length does an incoming req see
system.mem_ctrls.wrQLenPdf::20                      0                       # What write queue length does an incoming req see
system.mem_ctrls.wrQLenPdf::21                      0                       # What write queue length does an incoming req see
system.mem_ctrls.wrQLenPdf::22                      0                       # What write queue length does an incoming req see
system.mem_ctrls.wrQLenPdf::23                      0                       # What write queue length does an incoming req see
system.mem_ctrls.wrQLenPdf::24                      0                       # What write queue length does an incoming req see
system.mem_ctrls.wrQLenPdf::25                      0                       # What write queue length does an incoming req see
system.mem_ctrls.wrQLenPdf::26                      0                       # What write queue length does an incoming req see
system.mem_ctrls.wrQLenPdf::27                      0                       # What write queue length does an incoming req see
system.mem_ctrls.wrQLenPdf::28                      0                       # What write queue length does an incoming req see
system.mem_ctrls.wrQLenPdf::29                      0                       # What write queue length does an incoming req see
system.mem_ctrls.wrQLenPdf::30                      0                       # What write queue length does an incoming req see
system.mem_ctrls.wrQLenPdf::31                      0                       # What write queue length does an incoming req see
system.mem_ctrls.wrQLenPdf::32                      0                       # What write queue length does an incoming req see
system.mem_ctrls.wrQLenPdf::33                      0                       # What write queue length does an incoming req see
system.mem_ctrls.wrQLenPdf::34                      0                       # What write queue length does an incoming req see
system.mem_ctrls.wrQLenPdf::35                      0                       # What write queue length does an incoming req see
system.mem_ctrls.wrQLenPdf::36                      0                       # What write queue length does an incoming req see
system.mem_ctrls.wrQLenPdf::37                      0                       # What write queue length does an incoming req see
system.mem_ctrls.wrQLenPdf::38                      0                       # What write queue length does an incoming req see
system.mem_ctrls.wrQLenPdf::39                      0                       # What write queue length does an incoming req see
system.mem_ctrls.wrQLenPdf::40                      0                       # What write queue length does an incoming req see
system.mem_ctrls.wrQLenPdf::41                      0                       # What write queue length does an incoming req see
system.mem_ctrls.wrQLenPdf::42                      0                       # What write queue length does an incoming req see
system.mem_ctrls.wrQLenPdf::43                      0                       # What write queue length does an incoming req see
system.mem_ctrls.wrQLenPdf::44                      0                       # What write queue length does an incoming req see
system.mem_ctrls.wrQLenPdf::45                      0                       # What write queue length does an incoming req see
system.mem_ctrls.wrQLenPdf::46                      0                       # What write queue length does an incoming req see
system.mem_ctrls.wrQLenPdf::47                      0                       # What write queue length does an incoming req see
system.mem_ctrls.wrQLenPdf::48                      0                       # What write queue length does an incoming req see
system.mem_ctrls.wrQLenPdf::49                      0                       # What write queue length does an incoming req see
system.mem_ctrls.wrQLenPdf::50                      0                       # What write queue length does an incoming req see
system.mem_ctrls.wrQLenPdf::51                      0                       # What write queue length does an incoming req see
system.mem_ctrls.wrQLenPdf::52                      0                       # What write queue length does an incoming req see
system.mem_ctrls.wrQLenPdf::53                      0                       # What write queue length does an incoming req see
system.mem_ctrls.wrQLenPdf::54                      0                       # What write queue length does an incoming req see
system.mem_ctrls.wrQLenPdf::55                      0                       # What write queue length does an incoming req see
system.mem_ctrls.wrQLenPdf::56                      0                       # What write queue length does an incoming req see
system.mem_ctrls.wrQLenPdf::57                      0                       # What write queue length does an incoming req see
system.mem_ctrls.wrQLenPdf::58                      0                       # What write queue length does an incoming req see
system.mem_ctrls.wrQLenPdf::59                      0                       # What write queue length does an incoming req see
system.mem_ctrls.wrQLenPdf::60                      0                       # What write queue length does an incoming req see
system.mem_ctrls.wrQLenPdf::61                      0                       # What write queue length does an incoming req see
system.mem_ctrls.wrQLenPdf::62                      0                       # What write queue length does an incoming req see
system.mem_ctrls.wrQLenPdf::63                      0                       # What write queue length does an incoming req see
system.mem_ctrls.writeBursts                        0                       # Number of DRAM write bursts, including those merged in the write queue
system.mem_ctrls.writePktSize::0                    0                       # Write request sizes (log2)
system.mem_ctrls.writePktSize::1                    0                       # Write request sizes (log2)
system.mem_ctrls.writePktSize::2                    0                       # Write request sizes (log2)
system.mem_ctrls.writePktSize::3                    0                       # Write request sizes (log2)
system.mem_ctrls.writePktSize::4                    0                       # Write request sizes (log2)
system.mem_ctrls.writePktSize::5                    0                       # Write request sizes (log2)
system.mem_ctrls.writePktSize::6                    0                       # Write request sizes (log2)
system.mem_ctrls.writeReqs                          0                       # Number of write requests accepted
system.mem_ctrls.writeRowHitRate                  nan                       # Row buffer hit rate for writes
system.mem_ctrls.writeRowHits                       0                       # Number of row buffer hits during writes
system.mem_ctrls_0.actBackEnergy            117632610                       # Energy for active background per rank (pJ)
system.mem_ctrls_0.actEnergy                  6176100                       # Energy for activate commands per rank (pJ)
system.mem_ctrls_0.actPowerDownEnergy      1372816500                       # Energy for active power-down per rank (pJ)
system.mem_ctrls_0.averagePower            257.452118                       # Core power per rank (mW)
system.mem_ctrls_0.memoryStateTime::IDLE     37067000                       # Time in different power states
system.mem_ctrls_0.memoryStateTime::REF     164840000                       # Time in different power states
system.mem_ctrls_0.memoryStateTime::SREF  77744635000                       # Time in different power states
system.mem_ctrls_0.memoryStateTime::PRE_PDN   1652979000                       # Time in different power states
system.mem_ctrls_0.memoryStateTime::ACT     109417000                       # Time in different power states
system.mem_ctrls_0.memoryStateTime::ACT_PDN   3010689500                       # Time in different power states
system.mem_ctrls_0.preBackEnergy             20402400                       # Energy for precharge background per rank (pJ)
system.mem_ctrls_0.preEnergy                  3275085                       # Energy for precharge commands per rank (pJ)
system.mem_ctrls_0.prePowerDownEnergy       634732320                       # Energy for precharge power-down per rank (pJ)
system.mem_ctrls_0.readEnergy                25275600                       # Energy for read commands per rank (pJ)
system.mem_ctrls_0.refreshEnergy         389681760.000000                       # Energy for refresh commands per rank (pJ)
system.mem_ctrls_0.selfRefreshEnergy      18726177780                       # Energy for self refresh per rank (pJ)
system.mem_ctrls_0.totalEnergy            21296343315                       # Total energy per rank (pJ)
system.mem_ctrls_0.totalIdleTime          82408056750                       # Total Idle time Per DRAM Rank
system.mem_ctrls_0.writeEnergy                      0                       # Energy for write commands per rank (pJ)
system.mem_ctrls_1.actBackEnergy            306499830                       # Energy for active background per rank (pJ)
system.mem_ctrls_1.actEnergy                 14929740                       # Energy for activate commands per rank (pJ)
system.mem_ctrls_1.actPowerDownEnergy      4206326400                       # Energy for active power-down per rank (pJ)
system.mem_ctrls_1.averagePower            301.360892                       # Core power per rank (mW)
system.mem_ctrls_1.memoryStateTime::IDLE    202307500                       # Time in different power states
system.mem_ctrls_1.memoryStateTime::REF     584220000                       # Time in different power states
system.mem_ctrls_1.memoryStateTime::SREF  65029477750                       # Time in different power states
system.mem_ctrls_1.memoryStateTime::PRE_PDN   7538415750                       # Time in different power states
system.mem_ctrls_1.memoryStateTime::ACT     140675750                       # Time in different power states
system.mem_ctrls_1.memoryStateTime::ACT_PDN   9224530750                       # Time in different power states
system.mem_ctrls_1.preBackEnergy             97483200                       # Energy for precharge background per rank (pJ)
system.mem_ctrls_1.preEnergy                  7927755                       # Energy for precharge commands per rank (pJ)
system.mem_ctrls_1.prePowerDownEnergy      2894787840                       # Energy for precharge power-down per rank (pJ)
system.mem_ctrls_1.readEnergy                25475520                       # Energy for read commands per rank (pJ)
system.mem_ctrls_1.refreshEnergy         1381096080.000000                       # Energy for refresh commands per rank (pJ)
system.mem_ctrls_1.selfRefreshEnergy      15993385260                       # Energy for self refresh per rank (pJ)
system.mem_ctrls_1.totalEnergy            24928460745                       # Total energy per rank (pJ)
system.mem_ctrls_1.totalIdleTime          81792380500                       # Total Idle time Per DRAM Rank
system.mem_ctrls_1.writeEnergy                      0                       # Energy for write commands per rank (pJ)
system.membus.pkt_count_system.l2.mem_side::system.mem_ctrls.port        14216                       # Packet count per connected master and slave (bytes)
system.membus.pkt_count_system.l2.mem_side::total        14216                       # Packet count per connected master and slave (bytes)
system.membus.pkt_count::total                  14216                       # Packet count per connected master and slave (bytes)
system.membus.pkt_size_system.l2.mem_side::system.mem_ctrls.port       454912                       # Cumulative packet size per connected master and slave (bytes)
system.membus.pkt_size_system.l2.mem_side::total       454912                       # Cumulative packet size per connected master and slave (bytes)
system.membus.pkt_size::total                  454912                       # Cumulative packet size per connected master and slave (bytes)
system.membus.pwrStateResidencyTicks::UNDEFINED  82719627500                       # Cumulative time (in ticks) in various power states
system.membus.reqLayer2.occupancy             7127500                       # Layer occupancy (ticks)
system.membus.reqLayer2.utilization               0.0                       # Layer utilization (%)
system.membus.respLayer1.occupancy           37866500                       # Layer occupancy (ticks)
system.membus.respLayer1.utilization              0.0                       # Layer utilization (%)
system.membus.snoopTraffic                          0                       # Total snoop traffic (bytes)
system.membus.snoop_fanout::samples              7108                       # Request fanout histogram
system.membus.snoop_fanout::mean                    0                       # Request fanout histogram
system.membus.snoop_fanout::stdev                   0                       # Request fanout histogram
system.membus.snoop_fanout::underflows              0      0.00%      0.00% # Request fanout histogram
system.membus.snoop_fanout::0                    7108    100.00%    100.00% # Request fanout histogram
system.membus.snoop_fanout::1                       0      0.00%    100.00% # Request fanout histogram
system.membus.snoop_fanout::overflows               0      0.00%    100.00% # Request fanout histogram
system.membus.snoop_fanout::min_value               0                       # Request fanout histogram
system.membus.snoop_fanout::max_value               0                       # Request fanout histogram
system.membus.snoop_fanout::total                7108                       # Request fanout histogram
system.membus.snoop_filter.hit_multi_requests            0                       # Number of requests hitting in the snoop filter with multiple (>1) holders of the requested data.
system.membus.snoop_filter.hit_multi_snoops            0                       # Number of snoops hitting in the snoop filter with multiple (>1) holders of the requested data.
system.membus.snoop_filter.hit_single_requests            0                       # Number of requests hitting in the snoop filter with a single holder of the requested data.
system.membus.snoop_filter.hit_single_snoops            0                       # Number of snoops hitting in the snoop filter with a single holder of the requested data.
system.membus.snoop_filter.tot_requests          7108                       # Total number of requests made to the snoop filter.
system.membus.snoop_filter.tot_snoops               0                       # Total number of snoops made to the snoop filter.
system.membus.snoops                                0                       # Total snoops (count)
system.membus.trans_dist::ReadResp               3175                       # Transaction distribution
system.membus.trans_dist::ReadExReq              3933                       # Transaction distribution
system.membus.trans_dist::ReadExResp             3933                       # Transaction distribution
system.membus.trans_dist::ReadSharedReq          3175                       # Transaction distribution
system.pwrStateResidencyTicks::UNDEFINED  82719627500                       # Cumulative time (in ticks) in various power states
system.tol2bus.pkt_count_system.cpu.icache.mem_side::system.l2.cpu_side         2530                       # Packet count per connected master and slave (bytes)
system.tol2bus.pkt_count_system.cpu.dcache.mem_side::system.l2.cpu_side      2752835                       # Packet count per connected master and slave (bytes)
system.tol2bus.pkt_count::total               2755365                       # Packet count per connected master and slave (bytes)
system.tol2bus.pkt_size_system.cpu.icache.mem_side::system.l2.cpu_side        97344                       # Cumulative packet size per connected master and slave (bytes)
system.tol2bus.pkt_size_system.cpu.dcache.mem_side::system.l2.cpu_side    107797568                       # Cumulative packet size per connected master and slave (bytes)
system.tol2bus.pkt_size::total              107894912                       # Cumulative packet size per connected master and slave (bytes)
system.tol2bus.pwrStateResidencyTicks::UNDEFINED  82719627500                       # Cumulative time (in ticks) in various power states
system.tol2bus.reqLayer0.occupancy         1685097500                       # Layer occupancy (ticks)
system.tol2bus.reqLayer0.utilization              2.0                       # Layer utilization (%)
system.tol2bus.respLayer0.occupancy           1513500                       # Layer occupancy (ticks)
system.tol2bus.respLayer0.utilization             0.0                       # Layer utilization (%)
system.tol2bus.respLayer1.occupancy        1376929500                       # Layer occupancy (ticks)
system.tol2bus.respLayer1.utilization             1.7                       # Layer utilization (%)
system.tol2bus.snoopTraffic                         0                       # Total snoop traffic (bytes)
system.tol2bus.snoop_fanout::samples           918962                       # Request fanout histogram
system.tol2bus.snoop_fanout::mean            0.000002                       # Request fanout histogram
system.tol2bus.snoop_fanout::stdev           0.001475                       # Request fanout histogram
system.tol2bus.snoop_fanout::underflows             0      0.00%      0.00% # Request fanout histogram
system.tol2bus.snoop_fanout::0                 918960    100.00%    100.00% # Request fanout histogram
system.tol2bus.snoop_fanout::1                      2      0.00%    100.00% # Request fanout histogram
system.tol2bus.snoop_fanout::2                      0      0.00%    100.00% # Request fanout histogram
system.tol2bus.snoop_fanout::3                      0      0.00%    100.00% # Request fanout histogram
system.tol2bus.snoop_fanout::4                      0      0.00%    100.00% # Request fanout histogram
system.tol2bus.snoop_fanout::overflows              0      0.00%    100.00% # Request fanout histogram
system.tol2bus.snoop_fanout::min_value              0                       # Request fanout histogram
system.tol2bus.snoop_fanout::max_value              1                       # Request fanout histogram
system.tol2bus.snoop_fanout::total             918962                       # Request fanout histogram
system.tol2bus.snoop_filter.hit_multi_requests            2                       # Number of requests hitting in the snoop filter with multiple (>1) holders of the requested data.
system.tol2bus.snoop_filter.hit_multi_snoops            0                       # Number of snoops hitting in the snoop filter with multiple (>1) holders of the requested data.
system.tol2bus.snoop_filter.hit_single_requests       917441                       # Number of requests hitting in the snoop filter with a single holder of the requested data.
system.tol2bus.snoop_filter.hit_single_snoops            0                       # Number of snoops hitting in the snoop filter with a single holder of the requested data.
system.tol2bus.snoop_filter.tot_requests      1836403                       # Total number of requests made to the snoop filter.
system.tol2bus.snoop_filter.tot_snoops              0                       # Total number of snoops made to the snoop filter.
system.tol2bus.snoops                               0                       # Total snoops (count)
system.tol2bus.trans_dist::ReadResp            903595                       # Transaction distribution
system.tol2bus.trans_dist::WritebackDirty       766384                       # Transaction distribution
system.tol2bus.trans_dist::WritebackClean          512                       # Transaction distribution
system.tol2bus.trans_dist::CleanEvict          150545                       # Transaction distribution
system.tol2bus.trans_dist::ReadExReq            15367                       # Transaction distribution
system.tol2bus.trans_dist::ReadExResp           15367                       # Transaction distribution
system.tol2bus.trans_dist::ReadCleanReq          1009                       # Transaction distribution
system.tol2bus.trans_dist::ReadSharedReq       902586                       # Transaction distribution
system.voltage_domain.voltage                       1                       # Voltage in Volts

---------- End Simulation Statistics   ----------
