
---------- Begin Simulation Statistics ----------
final_tick                               151937635500                       # Number of ticks from beginning of simulation (restored from checkpoints and never reset)
host_inst_rate                                 708226                       # Simulator instruction rate (inst/s)
host_mem_usage                                 684376                       # Number of bytes of host memory used
host_op_rate                                  1159578                       # Simulator op (including micro ops) rate (op/s)
host_seconds                                   111.37                       # Real time elapsed on the host
host_tick_rate                             1364204845                       # Simulator tick rate (ticks/s)
sim_freq                                 1000000000000                       # Frequency of simulated ticks
sim_insts                                    78878233                       # Number of instructions simulated
sim_ops                                     129147366                       # Number of ops (including micro ops) simulated
sim_seconds                                  0.151938                       # Number of seconds simulated
sim_ticks                                151937635500                       # Number of ticks simulated
system.clk_domain.clock                          1000                       # Clock period in ticks
system.cpu.Branches                          10868238                       # Number of branches fetched
system.cpu.apic_clk_domain.clock                 8000                       # Clock period in ticks
system.cpu.committedInsts                    78878233                       # Number of instructions committed
system.cpu.committedOps                     129147366                       # Number of ops (including micro ops) committed
system.cpu.dcache.HardPFReq_avg_mshr_miss_latency::.cpu.dcache.prefetcher 12091.154285                       # average HardPFReq mshr miss latency
system.cpu.dcache.HardPFReq_avg_mshr_miss_latency::total 12091.154285                       # average HardPFReq mshr miss latency
system.cpu.dcache.HardPFReq_mshr_miss_latency::.cpu.dcache.prefetcher  17512791593                       # number of HardPFReq MSHR miss cycles
system.cpu.dcache.HardPFReq_mshr_miss_latency::total  17512791593                       # number of HardPFReq MSHR miss cycles
system.cpu.dcache.HardPFReq_mshr_miss_rate::.cpu.dcache.prefetcher          inf                       # mshr miss rate for HardPFReq accesses
system.cpu.dcache.HardPFReq_mshr_miss_rate::total          inf                       # mshr miss rate for HardPFReq accesses
system.cpu.dcache.HardPFReq_mshr_misses::.cpu.dcache.prefetcher      1448397                       # number of HardPFReq MSHR misses
system.cpu.dcache.HardPFReq_mshr_misses::total      1448397                       # number of HardPFReq MSHR misses
system.cpu.dcache.ReadReq_accesses::.cpu.data     22410827                       # number of ReadReq accesses(hits+misses)
system.cpu.dcache.ReadReq_accesses::total     22410827                       # number of ReadReq accesses(hits+misses)
system.cpu.dcache.ReadReq_avg_miss_latency::.cpu.data 13952.683638                       # average ReadReq miss latency
system.cpu.dcache.ReadReq_avg_miss_latency::total 13952.683638                       # average ReadReq miss latency
system.cpu.dcache.ReadReq_avg_mshr_miss_latency::.cpu.data 12950.880982                       # average ReadReq mshr miss latency
system.cpu.dcache.ReadReq_avg_mshr_miss_latency::total 12950.880982                       # average ReadReq mshr miss latency
system.cpu.dcache.ReadReq_hits::.cpu.data     21740636                       # number of ReadReq hits
system.cpu.dcache.ReadReq_hits::total        21740636                       # number of ReadReq hits
system.cpu.dcache.ReadReq_miss_latency::.cpu.data   9350963000                       # number of ReadReq miss cycles
system.cpu.dcache.ReadReq_miss_latency::total   9350963000                       # number of ReadReq miss cycles
system.cpu.dcache.ReadReq_miss_rate::.cpu.data     0.029905                       # miss rate for ReadReq accesses
system.cpu.dcache.ReadReq_miss_rate::total     0.029905                       # miss rate for ReadReq accesses
system.cpu.dcache.ReadReq_misses::.cpu.data       670191                       # number of ReadReq misses
system.cpu.dcache.ReadReq_misses::total        670191                       # number of ReadReq misses
system.cpu.dcache.ReadReq_mshr_hits::.cpu.data          257                       # number of ReadReq MSHR hits
system.cpu.dcache.ReadReq_mshr_hits::total          257                       # number of ReadReq MSHR hits
system.cpu.dcache.ReadReq_mshr_miss_latency::.cpu.data   8676235500                       # number of ReadReq MSHR miss cycles
system.cpu.dcache.ReadReq_mshr_miss_latency::total   8676235500                       # number of ReadReq MSHR miss cycles
system.cpu.dcache.ReadReq_mshr_miss_rate::.cpu.data     0.029893                       # mshr miss rate for ReadReq accesses
system.cpu.dcache.ReadReq_mshr_miss_rate::total     0.029893                       # mshr miss rate for ReadReq accesses
system.cpu.dcache.ReadReq_mshr_misses::.cpu.data       669934                       # number of ReadReq MSHR misses
system.cpu.dcache.ReadReq_mshr_misses::total       669934                       # number of ReadReq MSHR misses
system.cpu.dcache.WriteReq_accesses::.cpu.data     10316598                       # number of WriteReq accesses(hits+misses)
system.cpu.dcache.WriteReq_accesses::total     10316598                       # number of WriteReq accesses(hits+misses)
system.cpu.dcache.WriteReq_avg_miss_latency::.cpu.data 21634.193916                       # average WriteReq miss latency
system.cpu.dcache.WriteReq_avg_miss_latency::total 21634.193916                       # average WriteReq miss latency
system.cpu.dcache.WriteReq_avg_mshr_miss_latency::.cpu.data 20625.932710                       # average WriteReq mshr miss latency
system.cpu.dcache.WriteReq_avg_mshr_miss_latency::total 20625.932710                       # average WriteReq mshr miss latency
system.cpu.dcache.WriteReq_hits::.cpu.data     10042830                       # number of WriteReq hits
system.cpu.dcache.WriteReq_hits::total       10042830                       # number of WriteReq hits
system.cpu.dcache.WriteReq_miss_latency::.cpu.data   5922750000                       # number of WriteReq miss cycles
system.cpu.dcache.WriteReq_miss_latency::total   5922750000                       # number of WriteReq miss cycles
system.cpu.dcache.WriteReq_miss_rate::.cpu.data     0.026537                       # miss rate for WriteReq accesses
system.cpu.dcache.WriteReq_miss_rate::total     0.026537                       # miss rate for WriteReq accesses
system.cpu.dcache.WriteReq_misses::.cpu.data       273768                       # number of WriteReq misses
system.cpu.dcache.WriteReq_misses::total       273768                       # number of WriteReq misses
system.cpu.dcache.WriteReq_mshr_hits::.cpu.data          237                       # number of WriteReq MSHR hits
system.cpu.dcache.WriteReq_mshr_hits::total          237                       # number of WriteReq MSHR hits
system.cpu.dcache.WriteReq_mshr_miss_latency::.cpu.data   5641832000                       # number of WriteReq MSHR miss cycles
system.cpu.dcache.WriteReq_mshr_miss_latency::total   5641832000                       # number of WriteReq MSHR miss cycles
system.cpu.dcache.WriteReq_mshr_miss_rate::.cpu.data     0.026514                       # mshr miss rate for WriteReq accesses
system.cpu.dcache.WriteReq_mshr_miss_rate::total     0.026514                       # mshr miss rate for WriteReq accesses
system.cpu.dcache.WriteReq_mshr_misses::.cpu.data       273531                       # number of WriteReq MSHR misses
system.cpu.dcache.WriteReq_mshr_misses::total       273531                       # number of WriteReq MSHR misses
system.cpu.dcache.avg_blocked_cycles::no_mshrs          nan                       # average number of cycles each access was blocked
system.cpu.dcache.avg_blocked_cycles::no_targets          nan                       # average number of cycles each access was blocked
system.cpu.dcache.blocked::no_mshrs                 0                       # number of cycles access was blocked
system.cpu.dcache.blocked::no_targets               0                       # number of cycles access was blocked
system.cpu.dcache.blocked_cycles::no_mshrs            0                       # number of cycles access was blocked
system.cpu.dcache.blocked_cycles::no_targets            0                       # number of cycles access was blocked
system.cpu.dcache.demand_accesses::.cpu.data     32727425                       # number of demand (read+write) accesses
system.cpu.dcache.demand_accesses::total     32727425                       # number of demand (read+write) accesses
system.cpu.dcache.demand_avg_miss_latency::.cpu.data 16180.483474                       # average overall miss latency
system.cpu.dcache.demand_avg_miss_latency::total 16180.483474                       # average overall miss latency
system.cpu.dcache.demand_avg_mshr_miss_latency::.cpu.data 15176.045216                       # average overall mshr miss latency
system.cpu.dcache.demand_avg_mshr_miss_latency::total 15176.045216                       # average overall mshr miss latency
system.cpu.dcache.demand_hits::.cpu.data     31783466                       # number of demand (read+write) hits
system.cpu.dcache.demand_hits::total         31783466                       # number of demand (read+write) hits
system.cpu.dcache.demand_miss_latency::.cpu.data  15273713000                       # number of demand (read+write) miss cycles
system.cpu.dcache.demand_miss_latency::total  15273713000                       # number of demand (read+write) miss cycles
system.cpu.dcache.demand_miss_rate::.cpu.data     0.028843                       # miss rate for demand accesses
system.cpu.dcache.demand_miss_rate::total     0.028843                       # miss rate for demand accesses
system.cpu.dcache.demand_misses::.cpu.data       943959                       # number of demand (read+write) misses
system.cpu.dcache.demand_misses::total         943959                       # number of demand (read+write) misses
system.cpu.dcache.demand_mshr_hits::.cpu.data          494                       # number of demand (read+write) MSHR hits
system.cpu.dcache.demand_mshr_hits::total          494                       # number of demand (read+write) MSHR hits
system.cpu.dcache.demand_mshr_miss_latency::.cpu.data  14318067500                       # number of demand (read+write) MSHR miss cycles
system.cpu.dcache.demand_mshr_miss_latency::total  14318067500                       # number of demand (read+write) MSHR miss cycles
system.cpu.dcache.demand_mshr_miss_rate::.cpu.data     0.028828                       # mshr miss rate for demand accesses
system.cpu.dcache.demand_mshr_miss_rate::total     0.028828                       # mshr miss rate for demand accesses
system.cpu.dcache.demand_mshr_misses::.cpu.data       943465                       # number of demand (read+write) MSHR misses
system.cpu.dcache.demand_mshr_misses::total       943465                       # number of demand (read+write) MSHR misses
system.cpu.dcache.overall_accesses::.cpu.data     32727425                       # number of overall (read+write) accesses
system.cpu.dcache.overall_accesses::total     32727425                       # number of overall (read+write) accesses
system.cpu.dcache.overall_avg_miss_latency::.cpu.data 16180.483474                       # average overall miss latency
system.cpu.dcache.overall_avg_miss_latency::total 16180.483474                       # average overall miss latency
system.cpu.dcache.overall_avg_mshr_miss_latency::.cpu.data 15176.045216                       # average overall mshr miss latency
system.cpu.dcache.overall_avg_mshr_miss_latency::.cpu.dcache.prefetcher 12091.154285                       # average overall mshr miss latency
system.cpu.dcache.overall_avg_mshr_miss_latency::total 13307.983108                       # average overall mshr miss latency
system.cpu.dcache.overall_hits::.cpu.data     31783466                       # number of overall hits
system.cpu.dcache.overall_hits::total        31783466                       # number of overall hits
system.cpu.dcache.overall_miss_latency::.cpu.data  15273713000                       # number of overall miss cycles
system.cpu.dcache.overall_miss_latency::total  15273713000                       # number of overall miss cycles
system.cpu.dcache.overall_miss_rate::.cpu.data     0.028843                       # miss rate for overall accesses
system.cpu.dcache.overall_miss_rate::total     0.028843                       # miss rate for overall accesses
system.cpu.dcache.overall_misses::.cpu.data       943959                       # number of overall misses
system.cpu.dcache.overall_misses::total        943959                       # number of overall misses
system.cpu.dcache.overall_mshr_hits::.cpu.data          494                       # number of overall MSHR hits
system.cpu.dcache.overall_mshr_hits::total          494                       # number of overall MSHR hits
system.cpu.dcache.overall_mshr_miss_latency::.cpu.data  14318067500                       # number of overall MSHR miss cycles
system.cpu.dcache.overall_mshr_miss_latency::.cpu.dcache.prefetcher  17512791593                       # number of overall MSHR miss cycles
system.cpu.dcache.overall_mshr_miss_latency::total  31830859093                       # number of overall MSHR miss cycles
system.cpu.dcache.overall_mshr_miss_rate::.cpu.data     0.028828                       # mshr miss rate for overall accesses
system.cpu.dcache.overall_mshr_miss_rate::.cpu.dcache.prefetcher          inf                       # mshr miss rate for overall accesses
system.cpu.dcache.overall_mshr_miss_rate::total     0.073084                       # mshr miss rate for overall accesses
system.cpu.dcache.overall_mshr_misses::.cpu.data       943465                       # number of overall MSHR misses
system.cpu.dcache.overall_mshr_misses::.cpu.dcache.prefetcher      1448397                       # number of overall MSHR misses
system.cpu.dcache.overall_mshr_misses::total      2391862                       # number of overall MSHR misses
system.cpu.dcache.prefetcher.num_hwpf_issued      1845957                       # number of hwpf issued
system.cpu.dcache.prefetcher.pfBufferHit           21                       # number of redundant prefetches already in prefetch queue
system.cpu.dcache.prefetcher.pfIdentified      1845992                       # number of prefetch candidates identified
system.cpu.dcache.prefetcher.pfInCache              0                       # number of redundant prefetches already in cache/mshr dropped
system.cpu.dcache.prefetcher.pfRemovedFull            0                       # number of prefetches dropped due to prefetch queue size
system.cpu.dcache.prefetcher.pfSpanPage         41926                       # number of prefetches not generated due to page crossing
system.cpu.dcache.prefetcher.pwrStateResidencyTicks::UNDEFINED 151937635500                       # Cumulative time (in ticks) in various power states
system.cpu.dcache.pwrStateResidencyTicks::UNDEFINED 151937635500                       # Cumulative time (in ticks) in various power states
system.cpu.dcache.replacements                2390838                       # number of replacements
system.cpu.dcache.tags.age_task_id_blocks_1022::0           57                       # Occupied blocks per task id
system.cpu.dcache.tags.age_task_id_blocks_1022::1          150                       # Occupied blocks per task id
system.cpu.dcache.tags.age_task_id_blocks_1022::2          129                       # Occupied blocks per task id
system.cpu.dcache.tags.age_task_id_blocks_1022::3          322                       # Occupied blocks per task id
system.cpu.dcache.tags.age_task_id_blocks_1024::0           40                       # Occupied blocks per task id
system.cpu.dcache.tags.age_task_id_blocks_1024::1          108                       # Occupied blocks per task id
system.cpu.dcache.tags.age_task_id_blocks_1024::2           74                       # Occupied blocks per task id
system.cpu.dcache.tags.age_task_id_blocks_1024::3          144                       # Occupied blocks per task id
system.cpu.dcache.tags.avg_refs             14.288169                       # Average number of references to valid blocks.
system.cpu.dcache.tags.data_accesses         67846712                       # Number of data accesses
system.cpu.dcache.tags.occ_blocks::.cpu.data   427.793514                       # Average occupied blocks per requestor
system.cpu.dcache.tags.occ_blocks::.cpu.dcache.prefetcher   595.680825                       # Average occupied blocks per requestor
system.cpu.dcache.tags.occ_percent::.cpu.data     0.417767                       # Average percentage of cache occupancy
system.cpu.dcache.tags.occ_percent::.cpu.dcache.prefetcher     0.581720                       # Average percentage of cache occupancy
system.cpu.dcache.tags.occ_percent::total     0.999487                       # Average percentage of cache occupancy
system.cpu.dcache.tags.occ_task_id_blocks::1022          658                       # Occupied blocks per task id
system.cpu.dcache.tags.occ_task_id_blocks::1024          366                       # Occupied blocks per task id
system.cpu.dcache.tags.occ_task_id_percent::1022     0.642578                       # Percentage of cache occupancy per task id
system.cpu.dcache.tags.occ_task_id_percent::1024     0.357422                       # Percentage of cache occupancy per task id
system.cpu.dcache.tags.pwrStateResidencyTicks::UNDEFINED 151937635500                       # Cumulative time (in ticks) in various power states
system.cpu.dcache.tags.sampled_refs           2391862                       # Sample count of references to valid blocks.
system.cpu.dcache.tags.tag_accesses          67846712                       # Number of tag accesses
system.cpu.dcache.tags.tagsinuse          1023.474339                       # Cycle average of tags in use
system.cpu.dcache.tags.total_refs            34175328                       # Total number of references to valid blocks.
system.cpu.dcache.tags.warmup_cycle            174500                       # Cycle when the warmup percentage was hit.
system.cpu.dcache.unused_prefetches           1245437                       # number of HardPF blocks evicted w/o reference
system.cpu.dcache.writebacks::.writebacks      2367910                       # number of writebacks
system.cpu.dcache.writebacks::total           2367910                       # number of writebacks
system.cpu.dtb.pwrStateResidencyTicks::UNDEFINED 151937635500                       # Cumulative time (in ticks) in various power states
system.cpu.dtb.rdAccesses                    22410827                       # TLB accesses on read requests
system.cpu.dtb.rdMisses                        103411                       # TLB misses on read requests
system.cpu.dtb.walker.pwrStateResidencyTicks::UNDEFINED 151937635500                       # Cumulative time (in ticks) in various power states
system.cpu.dtb.wrAccesses                    10316598                       # TLB accesses on write requests
system.cpu.dtb.wrMisses                        209620                       # TLB misses on write requests
system.cpu.dtb_walker_cache.avg_blocked_cycles::no_mshrs          nan                       # average number of cycles each access was blocked
system.cpu.dtb_walker_cache.avg_blocked_cycles::no_targets          nan                       # average number of cycles each access was blocked
system.cpu.dtb_walker_cache.blocked::no_mshrs            0                       # number of cycles access was blocked
system.cpu.dtb_walker_cache.blocked::no_targets            0                       # number of cycles access was blocked
system.cpu.dtb_walker_cache.blocked_cycles::no_mshrs            0                       # number of cycles access was blocked
system.cpu.dtb_walker_cache.blocked_cycles::no_targets            0                       # number of cycles access was blocked
system.cpu.dtb_walker_cache.pwrStateResidencyTicks::UNDEFINED 151937635500                       # Cumulative time (in ticks) in various power states
system.cpu.dtb_walker_cache.replacements            0                       # number of replacements
system.cpu.dtb_walker_cache.tags.avg_refs          nan                       # Average number of references to valid blocks.
system.cpu.dtb_walker_cache.tags.data_accesses            0                       # Number of data accesses
system.cpu.dtb_walker_cache.tags.pwrStateResidencyTicks::UNDEFINED 151937635500                       # Cumulative time (in ticks) in various power states
system.cpu.dtb_walker_cache.tags.sampled_refs            0                       # Sample count of references to valid blocks.
system.cpu.dtb_walker_cache.tags.tag_accesses            0                       # Number of tag accesses
system.cpu.dtb_walker_cache.tags.tagsinuse            0                       # Cycle average of tags in use
system.cpu.dtb_walker_cache.tags.total_refs            0                       # Total number of references to valid blocks.
system.cpu.dtb_walker_cache.tags.warmup_cycle            0                       # Cycle when the warmup percentage was hit.
system.cpu.icache.ReadReq_accesses::.cpu.inst    104726132                       # number of ReadReq accesses(hits+misses)
system.cpu.icache.ReadReq_accesses::total    104726132                       # number of ReadReq accesses(hits+misses)
system.cpu.icache.ReadReq_avg_miss_latency::.cpu.inst 87497.757848                       # average ReadReq miss latency
system.cpu.icache.ReadReq_avg_miss_latency::total 87497.757848                       # average ReadReq miss latency
system.cpu.icache.ReadReq_avg_mshr_miss_latency::.cpu.inst 86497.757848                       # average ReadReq mshr miss latency
system.cpu.icache.ReadReq_avg_mshr_miss_latency::total 86497.757848                       # average ReadReq mshr miss latency
system.cpu.icache.ReadReq_hits::.cpu.inst    104724348                       # number of ReadReq hits
system.cpu.icache.ReadReq_hits::total       104724348                       # number of ReadReq hits
system.cpu.icache.ReadReq_miss_latency::.cpu.inst    156096000                       # number of ReadReq miss cycles
system.cpu.icache.ReadReq_miss_latency::total    156096000                       # number of ReadReq miss cycles
system.cpu.icache.ReadReq_miss_rate::.cpu.inst     0.000017                       # miss rate for ReadReq accesses
system.cpu.icache.ReadReq_miss_rate::total     0.000017                       # miss rate for ReadReq accesses
system.cpu.icache.ReadReq_misses::.cpu.inst         1784                       # number of ReadReq misses
system.cpu.icache.ReadReq_misses::total          1784                       # number of ReadReq misses
system.cpu.icache.ReadReq_mshr_miss_latency::.cpu.inst    154312000                       # number of ReadReq MSHR miss cycles
system.cpu.icache.ReadReq_mshr_miss_latency::total    154312000                       # number of ReadReq MSHR miss cycles
system.cpu.icache.ReadReq_mshr_miss_rate::.cpu.inst     0.000017                       # mshr miss rate for ReadReq accesses
system.cpu.icache.ReadReq_mshr_miss_rate::total     0.000017                       # mshr miss rate for ReadReq accesses
system.cpu.icache.ReadReq_mshr_misses::.cpu.inst         1784                       # number of ReadReq MSHR misses
system.cpu.icache.ReadReq_mshr_misses::total         1784                       # number of ReadReq MSHR misses
system.cpu.icache.avg_blocked_cycles::no_mshrs          nan                       # average number of cycles each access was blocked
system.cpu.icache.avg_blocked_cycles::no_targets          nan                       # average number of cycles each access was blocked
system.cpu.icache.blocked::no_mshrs                 0                       # number of cycles access was blocked
system.cpu.icache.blocked::no_targets               0                       # number of cycles access was blocked
system.cpu.icache.blocked_cycles::no_mshrs            0                       # number of cycles access was blocked
system.cpu.icache.blocked_cycles::no_targets            0                       # number of cycles access was blocked
system.cpu.icache.demand_accesses::.cpu.inst    104726132                       # number of demand (read+write) accesses
system.cpu.icache.demand_accesses::total    104726132                       # number of demand (read+write) accesses
system.cpu.icache.demand_avg_miss_latency::.cpu.inst 87497.757848                       # average overall miss latency
system.cpu.icache.demand_avg_miss_latency::total 87497.757848                       # average overall miss latency
system.cpu.icache.demand_avg_mshr_miss_latency::.cpu.inst 86497.757848                       # average overall mshr miss latency
system.cpu.icache.demand_avg_mshr_miss_latency::total 86497.757848                       # average overall mshr miss latency
system.cpu.icache.demand_hits::.cpu.inst    104724348                       # number of demand (read+write) hits
system.cpu.icache.demand_hits::total        104724348                       # number of demand (read+write) hits
system.cpu.icache.demand_miss_latency::.cpu.inst    156096000                       # number of demand (read+write) miss cycles
system.cpu.icache.demand_miss_latency::total    156096000                       # number of demand (read+write) miss cycles
system.cpu.icache.demand_miss_rate::.cpu.inst     0.000017                       # miss rate for demand accesses
system.cpu.icache.demand_miss_rate::total     0.000017                       # miss rate for demand accesses
system.cpu.icache.demand_misses::.cpu.inst         1784                       # number of demand (read+write) misses
system.cpu.icache.demand_misses::total           1784                       # number of demand (read+write) misses
system.cpu.icache.demand_mshr_miss_latency::.cpu.inst    154312000                       # number of demand (read+write) MSHR miss cycles
system.cpu.icache.demand_mshr_miss_latency::total    154312000                       # number of demand (read+write) MSHR miss cycles
system.cpu.icache.demand_mshr_miss_rate::.cpu.inst     0.000017                       # mshr miss rate for demand accesses
system.cpu.icache.demand_mshr_miss_rate::total     0.000017                       # mshr miss rate for demand accesses
system.cpu.icache.demand_mshr_misses::.cpu.inst         1784                       # number of demand (read+write) MSHR misses
system.cpu.icache.demand_mshr_misses::total         1784                       # number of demand (read+write) MSHR misses
system.cpu.icache.overall_accesses::.cpu.inst    104726132                       # number of overall (read+write) accesses
system.cpu.icache.overall_accesses::total    104726132                       # number of overall (read+write) accesses
system.cpu.icache.overall_avg_miss_latency::.cpu.inst 87497.757848                       # average overall miss latency
system.cpu.icache.overall_avg_miss_latency::total 87497.757848                       # average overall miss latency
system.cpu.icache.overall_avg_mshr_miss_latency::.cpu.inst 86497.757848                       # average overall mshr miss latency
system.cpu.icache.overall_avg_mshr_miss_latency::total 86497.757848                       # average overall mshr miss latency
system.cpu.icache.overall_hits::.cpu.inst    104724348                       # number of overall hits
system.cpu.icache.overall_hits::total       104724348                       # number of overall hits
system.cpu.icache.overall_miss_latency::.cpu.inst    156096000                       # number of overall miss cycles
system.cpu.icache.overall_miss_latency::total    156096000                       # number of overall miss cycles
system.cpu.icache.overall_miss_rate::.cpu.inst     0.000017                       # miss rate for overall accesses
system.cpu.icache.overall_miss_rate::total     0.000017                       # miss rate for overall accesses
system.cpu.icache.overall_misses::.cpu.inst         1784                       # number of overall misses
system.cpu.icache.overall_misses::total          1784                       # number of overall misses
system.cpu.icache.overall_mshr_miss_latency::.cpu.inst    154312000                       # number of overall MSHR miss cycles
system.cpu.icache.overall_mshr_miss_latency::total    154312000                       # number of overall MSHR miss cycles
system.cpu.icache.overall_mshr_miss_rate::.cpu.inst     0.000017                       # mshr miss rate for overall accesses
system.cpu.icache.overall_mshr_miss_rate::total     0.000017                       # mshr miss rate for overall accesses
system.cpu.icache.overall_mshr_misses::.cpu.inst         1784                       # number of overall MSHR misses
system.cpu.icache.overall_mshr_misses::total         1784                       # number of overall MSHR misses
system.cpu.icache.pwrStateResidencyTicks::UNDEFINED 151937635500                       # Cumulative time (in ticks) in various power states
system.cpu.icache.replacements                   1272                       # number of replacements
system.cpu.icache.tags.age_task_id_blocks_1024::0           62                       # Occupied blocks per task id
system.cpu.icache.tags.age_task_id_blocks_1024::1           83                       # Occupied blocks per task id
system.cpu.icache.tags.age_task_id_blocks_1024::3          196                       # Occupied blocks per task id
system.cpu.icache.tags.age_task_id_blocks_1024::4          171                       # Occupied blocks per task id
system.cpu.icache.tags.avg_refs          58702.988789                       # Average number of references to valid blocks.
system.cpu.icache.tags.data_accesses        209454048                       # Number of data accesses
system.cpu.icache.tags.occ_blocks::.cpu.inst   504.201725                       # Average occupied blocks per requestor
system.cpu.icache.tags.occ_percent::.cpu.inst     0.984769                       # Average percentage of cache occupancy
system.cpu.icache.tags.occ_percent::total     0.984769                       # Average percentage of cache occupancy
system.cpu.icache.tags.occ_task_id_blocks::1024          512                       # Occupied blocks per task id
system.cpu.icache.tags.occ_task_id_percent::1024            1                       # Percentage of cache occupancy per task id
system.cpu.icache.tags.pwrStateResidencyTicks::UNDEFINED 151937635500                       # Cumulative time (in ticks) in various power states
system.cpu.icache.tags.sampled_refs              1784                       # Sample count of references to valid blocks.
system.cpu.icache.tags.tag_accesses         209454048                       # Number of tag accesses
system.cpu.icache.tags.tagsinuse           504.201725                       # Cycle average of tags in use
system.cpu.icache.tags.total_refs           104726132                       # Total number of references to valid blocks.
system.cpu.icache.tags.warmup_cycle             87500                       # Cycle when the warmup percentage was hit.
system.cpu.icache.writebacks::.writebacks         1272                       # number of writebacks
system.cpu.icache.writebacks::total              1272                       # number of writebacks
system.cpu.idle_fraction                     0.000000                       # Percentage of idle cycles
system.cpu.interrupts.pwrStateResidencyTicks::UNDEFINED 151937635500                       # Cumulative time (in ticks) in various power states
system.cpu.itb.pwrStateResidencyTicks::UNDEFINED 151937635500                       # Cumulative time (in ticks) in various power states
system.cpu.itb.rdAccesses                           0                       # TLB accesses on read requests
system.cpu.itb.rdMisses                             0                       # TLB misses on read requests
system.cpu.itb.walker.pwrStateResidencyTicks::UNDEFINED 151937635500                       # Cumulative time (in ticks) in various power states
system.cpu.itb.wrAccesses                   104726132                       # TLB accesses on write requests
system.cpu.itb.wrMisses                           113                       # TLB misses on write requests
system.cpu.itb_walker_cache.avg_blocked_cycles::no_mshrs          nan                       # average number of cycles each access was blocked
system.cpu.itb_walker_cache.avg_blocked_cycles::no_targets          nan                       # average number of cycles each access was blocked
system.cpu.itb_walker_cache.blocked::no_mshrs            0                       # number of cycles access was blocked
system.cpu.itb_walker_cache.blocked::no_targets            0                       # number of cycles access was blocked
system.cpu.itb_walker_cache.blocked_cycles::no_mshrs            0                       # number of cycles access was blocked
system.cpu.itb_walker_cache.blocked_cycles::no_targets            0                       # number of cycles access was blocked
system.cpu.itb_walker_cache.pwrStateResidencyTicks::UNDEFINED 151937635500                       # Cumulative time (in ticks) in various power states
system.cpu.itb_walker_cache.replacements            0                       # number of replacements
system.cpu.itb_walker_cache.tags.avg_refs          nan                       # Average number of references to valid blocks.
system.cpu.itb_walker_cache.tags.data_accesses            0                       # Number of data accesses
system.cpu.itb_walker_cache.tags.pwrStateResidencyTicks::UNDEFINED 151937635500                       # Cumulative time (in ticks) in various power states
system.cpu.itb_walker_cache.tags.sampled_refs            0                       # Sample count of references to valid blocks.
system.cpu.itb_walker_cache.tags.tag_accesses            0                       # Number of tag accesses
system.cpu.itb_walker_cache.tags.tagsinuse            0                       # Cycle average of tags in use
system.cpu.itb_walker_cache.tags.total_refs            0                       # Total number of references to valid blocks.
system.cpu.itb_walker_cache.tags.warmup_cycle            0                       # Cycle when the warmup percentage was hit.
system.cpu.not_idle_fraction                 1.000000                       # Percentage of non-idle cycles
system.cpu.numCycles                        303875271                       # number of cpu cycles simulated
system.cpu.numWorkItemsCompleted                    0                       # number of work items this cpu completed
system.cpu.numWorkItemsStarted                      0                       # number of work items this cpu started
system.cpu.num_busy_cycles               303875270.998000                       # Number of busy cycles
system.cpu.num_cc_register_reads             64196642                       # number of times the CC registers were read
system.cpu.num_cc_register_writes            58760935                       # number of times the CC registers were written
system.cpu.num_conditional_control_insts      9964203                       # number of instructions that are conditional controls
system.cpu.num_fp_alu_accesses                   9671                       # Number of float alu accesses
system.cpu.num_fp_insts                          9671                       # number of float instructions
system.cpu.num_fp_register_reads                12733                       # number of times the floating registers were read
system.cpu.num_fp_register_writes                6438                       # number of times the floating registers were written
system.cpu.num_func_calls                       32962                       # number of times a function call or return occured
system.cpu.num_idle_cycles                   0.002000                       # Number of idle cycles
system.cpu.num_int_alu_accesses             129068458                       # Number of integer alu accesses
system.cpu.num_int_insts                    129068458                       # number of integer instructions
system.cpu.num_int_register_reads           268967106                       # number of times the integer registers were read
system.cpu.num_int_register_writes          107920199                       # number of times the integer registers were written
system.cpu.num_load_insts                    22410819                       # Number of load instructions
system.cpu.num_mem_refs                      32727410                       # number of memory refs
system.cpu.num_store_insts                   10316591                       # Number of store instructions
system.cpu.num_vec_alu_accesses                     0                       # Number of vector alu accesses
system.cpu.num_vec_insts                            0                       # number of vector instructions
system.cpu.num_vec_register_reads                   0                       # number of times the vector registers were read
system.cpu.num_vec_register_writes                  0                       # number of times the vector registers were written
system.cpu.op_class::No_OpClass                 74869      0.06%      0.06% # Class of executed instruction
system.cpu.op_class::IntAlu                  96338142     74.60%     74.65% # Class of executed instruction
system.cpu.op_class::IntMult                       81      0.00%     74.65% # Class of executed instruction
system.cpu.op_class::IntDiv                      1647      0.00%     74.65% # Class of executed instruction
system.cpu.op_class::FloatAdd                     289      0.00%     74.66% # Class of executed instruction
system.cpu.op_class::FloatCmp                       0      0.00%     74.66% # Class of executed instruction
system.cpu.op_class::FloatCvt                     480      0.00%     74.66% # Class of executed instruction
system.cpu.op_class::FloatMult                      0      0.00%     74.66% # Class of executed instruction
system.cpu.op_class::FloatMultAcc                   0      0.00%     74.66% # Class of executed instruction
system.cpu.op_class::FloatDiv                       0      0.00%     74.66% # Class of executed instruction
system.cpu.op_class::FloatMisc                      0      0.00%     74.66% # Class of executed instruction
system.cpu.op_class::FloatSqrt                      0      0.00%     74.66% # Class of executed instruction
system.cpu.op_class::SimdAdd                      618      0.00%     74.66% # Class of executed instruction
system.cpu.op_class::SimdAddAcc                     0      0.00%     74.66% # Class of executed instruction
system.cpu.op_class::SimdAlu                     1021      0.00%     74.66% # Class of executed instruction
system.cpu.op_class::SimdCmp                        0      0.00%     74.66% # Class of executed instruction
system.cpu.op_class::SimdCvt                     1434      0.00%     74.66% # Class of executed instruction
system.cpu.op_class::SimdMisc                     983      0.00%     74.66% # Class of executed instruction
system.cpu.op_class::SimdMult                       0      0.00%     74.66% # Class of executed instruction
system.cpu.op_class::SimdMultAcc                    0      0.00%     74.66% # Class of executed instruction
system.cpu.op_class::SimdShift                    392      0.00%     74.66% # Class of executed instruction
system.cpu.op_class::SimdShiftAcc                   0      0.00%     74.66% # Class of executed instruction
system.cpu.op_class::SimdDiv                        0      0.00%     74.66% # Class of executed instruction
system.cpu.op_class::SimdSqrt                       0      0.00%     74.66% # Class of executed instruction
system.cpu.op_class::SimdFloatAdd                   0      0.00%     74.66% # Class of executed instruction
system.cpu.op_class::SimdFloatAlu                   0      0.00%     74.66% # Class of executed instruction
system.cpu.op_class::SimdFloatCmp                   0      0.00%     74.66% # Class of executed instruction
system.cpu.op_class::SimdFloatCvt                   0      0.00%     74.66% # Class of executed instruction
system.cpu.op_class::SimdFloatDiv                   0      0.00%     74.66% # Class of executed instruction
system.cpu.op_class::SimdFloatMisc                  0      0.00%     74.66% # Class of executed instruction
system.cpu.op_class::SimdFloatMult                  0      0.00%     74.66% # Class of executed instruction
system.cpu.op_class::SimdFloatMultAcc               0      0.00%     74.66% # Class of executed instruction
system.cpu.op_class::SimdFloatSqrt                  0      0.00%     74.66% # Class of executed instruction
system.cpu.op_class::SimdReduceAdd                  0      0.00%     74.66% # Class of executed instruction
system.cpu.op_class::SimdReduceAlu                  0      0.00%     74.66% # Class of executed instruction
system.cpu.op_class::SimdReduceCmp                  0      0.00%     74.66% # Class of executed instruction
system.cpu.op_class::SimdFloatReduceAdd             0      0.00%     74.66% # Class of executed instruction
system.cpu.op_class::SimdFloatReduceCmp             0      0.00%     74.66% # Class of executed instruction
system.cpu.op_class::SimdAes                        0      0.00%     74.66% # Class of executed instruction
system.cpu.op_class::SimdAesMix                     0      0.00%     74.66% # Class of executed instruction
system.cpu.op_class::SimdSha1Hash                   0      0.00%     74.66% # Class of executed instruction
system.cpu.op_class::SimdSha1Hash2                  0      0.00%     74.66% # Class of executed instruction
system.cpu.op_class::SimdSha256Hash                 0      0.00%     74.66% # Class of executed instruction
system.cpu.op_class::SimdSha256Hash2                0      0.00%     74.66% # Class of executed instruction
system.cpu.op_class::SimdShaSigma2                  0      0.00%     74.66% # Class of executed instruction
system.cpu.op_class::SimdShaSigma3                  0      0.00%     74.66% # Class of executed instruction
system.cpu.op_class::SimdPredAlu                    0      0.00%     74.66% # Class of executed instruction
system.cpu.op_class::MemRead                 22408407     17.35%     92.01% # Class of executed instruction
system.cpu.op_class::MemWrite                10314639      7.99%    100.00% # Class of executed instruction
system.cpu.op_class::FloatMemRead                2412      0.00%    100.00% # Class of executed instruction
system.cpu.op_class::FloatMemWrite               1952      0.00%    100.00% # Class of executed instruction
system.cpu.op_class::IprAccess                      0      0.00%    100.00% # Class of executed instruction
system.cpu.op_class::InstPrefetch                   0      0.00%    100.00% # Class of executed instruction
system.cpu.op_class::total                  129147366                       # Class of executed instruction
system.cpu.pwrStateResidencyTicks::ON    151937635500                       # Cumulative time (in ticks) in various power states
system.cpu.workload.numSyscalls                    95                       # Number of system calls
system.cpu_clk_domain.clock                       500                       # Clock period in ticks
system.cpu_voltage_domain.voltage                   1                       # Voltage in Volts
system.l2.ReadCleanReq_accesses::.cpu.inst         1784                       # number of ReadCleanReq accesses(hits+misses)
system.l2.ReadCleanReq_accesses::total           1784                       # number of ReadCleanReq accesses(hits+misses)
system.l2.ReadCleanReq_avg_miss_latency::.cpu.inst 95079.567155                       # average ReadCleanReq miss latency
system.l2.ReadCleanReq_avg_miss_latency::total 95079.567155                       # average ReadCleanReq miss latency
system.l2.ReadCleanReq_avg_mshr_miss_latency::.cpu.inst 85079.567155                       # average ReadCleanReq mshr miss latency
system.l2.ReadCleanReq_avg_mshr_miss_latency::total 85079.567155                       # average ReadCleanReq mshr miss latency
system.l2.ReadCleanReq_hits::.cpu.inst            213                       # number of ReadCleanReq hits
system.l2.ReadCleanReq_hits::total                213                       # number of ReadCleanReq hits
system.l2.ReadCleanReq_miss_latency::.cpu.inst    149370000                       # number of ReadCleanReq miss cycles
system.l2.ReadCleanReq_miss_latency::total    149370000                       # number of ReadCleanReq miss cycles
system.l2.ReadCleanReq_miss_rate::.cpu.inst     0.880605                       # miss rate for ReadCleanReq accesses
system.l2.ReadCleanReq_miss_rate::total      0.880605                       # miss rate for ReadCleanReq accesses
system.l2.ReadCleanReq_misses::.cpu.inst         1571                       # number of ReadCleanReq misses
system.l2.ReadCleanReq_misses::total             1571                       # number of ReadCleanReq misses
system.l2.ReadCleanReq_mshr_miss_latency::.cpu.inst    133660000                       # number of ReadCleanReq MSHR miss cycles
system.l2.ReadCleanReq_mshr_miss_latency::total    133660000                       # number of ReadCleanReq MSHR miss cycles
system.l2.ReadCleanReq_mshr_miss_rate::.cpu.inst     0.880605                       # mshr miss rate for ReadCleanReq accesses
system.l2.ReadCleanReq_mshr_miss_rate::total     0.880605                       # mshr miss rate for ReadCleanReq accesses
system.l2.ReadCleanReq_mshr_misses::.cpu.inst         1571                       # number of ReadCleanReq MSHR misses
system.l2.ReadCleanReq_mshr_misses::total         1571                       # number of ReadCleanReq MSHR misses
system.l2.ReadExReq_accesses::.cpu.data        273531                       # number of ReadExReq accesses(hits+misses)
system.l2.ReadExReq_accesses::total            273531                       # number of ReadExReq accesses(hits+misses)
system.l2.ReadExReq_avg_miss_latency::.cpu.data 103975.568182                       # average ReadExReq miss latency
system.l2.ReadExReq_avg_miss_latency::total 103975.568182                       # average ReadExReq miss latency
system.l2.ReadExReq_avg_mshr_miss_latency::.cpu.data 93975.568182                       # average ReadExReq mshr miss latency
system.l2.ReadExReq_avg_mshr_miss_latency::total 93975.568182                       # average ReadExReq mshr miss latency
system.l2.ReadExReq_hits::.cpu.data            250651                       # number of ReadExReq hits
system.l2.ReadExReq_hits::total                250651                       # number of ReadExReq hits
system.l2.ReadExReq_miss_latency::.cpu.data   2378961000                       # number of ReadExReq miss cycles
system.l2.ReadExReq_miss_latency::total    2378961000                       # number of ReadExReq miss cycles
system.l2.ReadExReq_miss_rate::.cpu.data     0.083647                       # miss rate for ReadExReq accesses
system.l2.ReadExReq_miss_rate::total         0.083647                       # miss rate for ReadExReq accesses
system.l2.ReadExReq_misses::.cpu.data           22880                       # number of ReadExReq misses
system.l2.ReadExReq_misses::total               22880                       # number of ReadExReq misses
system.l2.ReadExReq_mshr_miss_latency::.cpu.data   2150161000                       # number of ReadExReq MSHR miss cycles
system.l2.ReadExReq_mshr_miss_latency::total   2150161000                       # number of ReadExReq MSHR miss cycles
system.l2.ReadExReq_mshr_miss_rate::.cpu.data     0.083647                       # mshr miss rate for ReadExReq accesses
system.l2.ReadExReq_mshr_miss_rate::total     0.083647                       # mshr miss rate for ReadExReq accesses
system.l2.ReadExReq_mshr_misses::.cpu.data        22880                       # number of ReadExReq MSHR misses
system.l2.ReadExReq_mshr_misses::total          22880                       # number of ReadExReq MSHR misses
system.l2.ReadSharedReq_accesses::.cpu.data       669934                       # number of ReadSharedReq accesses(hits+misses)
system.l2.ReadSharedReq_accesses::.cpu.dcache.prefetcher      1448397                       # number of ReadSharedReq accesses(hits+misses)
system.l2.ReadSharedReq_accesses::total       2118331                       # number of ReadSharedReq accesses(hits+misses)
system.l2.ReadSharedReq_avg_miss_latency::.cpu.data 88836.277974                       # average ReadSharedReq miss latency
system.l2.ReadSharedReq_avg_miss_latency::.cpu.dcache.prefetcher 127057.351274                       # average ReadSharedReq miss latency
system.l2.ReadSharedReq_avg_miss_latency::total 123094.272228                       # average ReadSharedReq miss latency
system.l2.ReadSharedReq_avg_mshr_miss_latency::.cpu.data 78836.277974                       # average ReadSharedReq mshr miss latency
system.l2.ReadSharedReq_avg_mshr_miss_latency::.cpu.dcache.prefetcher 117057.351274                       # average ReadSharedReq mshr miss latency
system.l2.ReadSharedReq_avg_mshr_miss_latency::total 113094.272228                       # average ReadSharedReq mshr miss latency
system.l2.ReadSharedReq_hits::.cpu.data        669085                       # number of ReadSharedReq hits
system.l2.ReadSharedReq_hits::.cpu.dcache.prefetcher      1441058                       # number of ReadSharedReq hits
system.l2.ReadSharedReq_hits::total           2110143                       # number of ReadSharedReq hits
system.l2.ReadSharedReq_miss_latency::.cpu.data     75422000                       # number of ReadSharedReq miss cycles
system.l2.ReadSharedReq_miss_latency::.cpu.dcache.prefetcher    932473901                       # number of ReadSharedReq miss cycles
system.l2.ReadSharedReq_miss_latency::total   1007895901                       # number of ReadSharedReq miss cycles
system.l2.ReadSharedReq_miss_rate::.cpu.data     0.001267                       # miss rate for ReadSharedReq accesses
system.l2.ReadSharedReq_miss_rate::.cpu.dcache.prefetcher     0.005067                       # miss rate for ReadSharedReq accesses
system.l2.ReadSharedReq_miss_rate::total     0.003865                       # miss rate for ReadSharedReq accesses
system.l2.ReadSharedReq_misses::.cpu.data          849                       # number of ReadSharedReq misses
system.l2.ReadSharedReq_misses::.cpu.dcache.prefetcher         7339                       # number of ReadSharedReq misses
system.l2.ReadSharedReq_misses::total            8188                       # number of ReadSharedReq misses
system.l2.ReadSharedReq_mshr_miss_latency::.cpu.data     66932000                       # number of ReadSharedReq MSHR miss cycles
system.l2.ReadSharedReq_mshr_miss_latency::.cpu.dcache.prefetcher    859083901                       # number of ReadSharedReq MSHR miss cycles
system.l2.ReadSharedReq_mshr_miss_latency::total    926015901                       # number of ReadSharedReq MSHR miss cycles
system.l2.ReadSharedReq_mshr_miss_rate::.cpu.data     0.001267                       # mshr miss rate for ReadSharedReq accesses
system.l2.ReadSharedReq_mshr_miss_rate::.cpu.dcache.prefetcher     0.005067                       # mshr miss rate for ReadSharedReq accesses
system.l2.ReadSharedReq_mshr_miss_rate::total     0.003865                       # mshr miss rate for ReadSharedReq accesses
system.l2.ReadSharedReq_mshr_misses::.cpu.data          849                       # number of ReadSharedReq MSHR misses
system.l2.ReadSharedReq_mshr_misses::.cpu.dcache.prefetcher         7339                       # number of ReadSharedReq MSHR misses
system.l2.ReadSharedReq_mshr_misses::total         8188                       # number of ReadSharedReq MSHR misses
system.l2.WritebackClean_accesses::.writebacks         1267                       # number of WritebackClean accesses(hits+misses)
system.l2.WritebackClean_accesses::total         1267                       # number of WritebackClean accesses(hits+misses)
system.l2.WritebackClean_hits::.writebacks         1267                       # number of WritebackClean hits
system.l2.WritebackClean_hits::total             1267                       # number of WritebackClean hits
system.l2.WritebackDirty_accesses::.writebacks      2367910                       # number of WritebackDirty accesses(hits+misses)
system.l2.WritebackDirty_accesses::total      2367910                       # number of WritebackDirty accesses(hits+misses)
system.l2.WritebackDirty_hits::.writebacks      2367910                       # number of WritebackDirty hits
system.l2.WritebackDirty_hits::total          2367910                       # number of WritebackDirty hits
system.l2.avg_blocked_cycles::no_mshrs            nan                       # average number of cycles each access was blocked
system.l2.avg_blocked_cycles::no_targets          nan                       # average number of cycles each access was blocked
system.l2.blocked::no_mshrs                         0                       # number of cycles access was blocked
system.l2.blocked::no_targets                       0                       # number of cycles access was blocked
system.l2.blocked_cycles::no_mshrs                  0                       # number of cycles access was blocked
system.l2.blocked_cycles::no_targets                0                       # number of cycles access was blocked
system.l2.demand_accesses::.cpu.inst             1784                       # number of demand (read+write) accesses
system.l2.demand_accesses::.cpu.data           943465                       # number of demand (read+write) accesses
system.l2.demand_accesses::.cpu.dcache.prefetcher      1448397                       # number of demand (read+write) accesses
system.l2.demand_accesses::total              2393646                       # number of demand (read+write) accesses
system.l2.demand_avg_miss_latency::.cpu.inst 95079.567155                       # average overall miss latency
system.l2.demand_avg_miss_latency::.cpu.data 103433.899448                       # average overall miss latency
system.l2.demand_avg_miss_latency::.cpu.dcache.prefetcher 127057.351274                       # average overall miss latency
system.l2.demand_avg_miss_latency::total 108343.604308                       # average overall miss latency
system.l2.demand_avg_mshr_miss_latency::.cpu.inst 85079.567155                       # average overall mshr miss latency
system.l2.demand_avg_mshr_miss_latency::.cpu.data 93433.899448                       # average overall mshr miss latency
system.l2.demand_avg_mshr_miss_latency::.cpu.dcache.prefetcher 117057.351274                       # average overall mshr miss latency
system.l2.demand_avg_mshr_miss_latency::total 98343.604308                       # average overall mshr miss latency
system.l2.demand_hits::.cpu.inst                  213                       # number of demand (read+write) hits
system.l2.demand_hits::.cpu.data               919736                       # number of demand (read+write) hits
system.l2.demand_hits::.cpu.dcache.prefetcher      1441058                       # number of demand (read+write) hits
system.l2.demand_hits::total                  2361007                       # number of demand (read+write) hits
system.l2.demand_miss_latency::.cpu.inst    149370000                       # number of demand (read+write) miss cycles
system.l2.demand_miss_latency::.cpu.data   2454383000                       # number of demand (read+write) miss cycles
system.l2.demand_miss_latency::.cpu.dcache.prefetcher    932473901                       # number of demand (read+write) miss cycles
system.l2.demand_miss_latency::total       3536226901                       # number of demand (read+write) miss cycles
system.l2.demand_miss_rate::.cpu.inst        0.880605                       # miss rate for demand accesses
system.l2.demand_miss_rate::.cpu.data        0.025151                       # miss rate for demand accesses
system.l2.demand_miss_rate::.cpu.dcache.prefetcher     0.005067                       # miss rate for demand accesses
system.l2.demand_miss_rate::total            0.013636                       # miss rate for demand accesses
system.l2.demand_misses::.cpu.inst               1571                       # number of demand (read+write) misses
system.l2.demand_misses::.cpu.data              23729                       # number of demand (read+write) misses
system.l2.demand_misses::.cpu.dcache.prefetcher         7339                       # number of demand (read+write) misses
system.l2.demand_misses::total                  32639                       # number of demand (read+write) misses
system.l2.demand_mshr_miss_latency::.cpu.inst    133660000                       # number of demand (read+write) MSHR miss cycles
system.l2.demand_mshr_miss_latency::.cpu.data   2217093000                       # number of demand (read+write) MSHR miss cycles
system.l2.demand_mshr_miss_latency::.cpu.dcache.prefetcher    859083901                       # number of demand (read+write) MSHR miss cycles
system.l2.demand_mshr_miss_latency::total   3209836901                       # number of demand (read+write) MSHR miss cycles
system.l2.demand_mshr_miss_rate::.cpu.inst     0.880605                       # mshr miss rate for demand accesses
system.l2.demand_mshr_miss_rate::.cpu.data     0.025151                       # mshr miss rate for demand accesses
system.l2.demand_mshr_miss_rate::.cpu.dcache.prefetcher     0.005067                       # mshr miss rate for demand accesses
system.l2.demand_mshr_miss_rate::total       0.013636                       # mshr miss rate for demand accesses
system.l2.demand_mshr_misses::.cpu.inst          1571                       # number of demand (read+write) MSHR misses
system.l2.demand_mshr_misses::.cpu.data         23729                       # number of demand (read+write) MSHR misses
system.l2.demand_mshr_misses::.cpu.dcache.prefetcher         7339                       # number of demand (read+write) MSHR misses
system.l2.demand_mshr_misses::total             32639                       # number of demand (read+write) MSHR misses
system.l2.overall_accesses::.cpu.inst            1784                       # number of overall (read+write) accesses
system.l2.overall_accesses::.cpu.data          943465                       # number of overall (read+write) accesses
system.l2.overall_accesses::.cpu.dcache.prefetcher      1448397                       # number of overall (read+write) accesses
system.l2.overall_accesses::total             2393646                       # number of overall (read+write) accesses
system.l2.overall_avg_miss_latency::.cpu.inst 95079.567155                       # average overall miss latency
system.l2.overall_avg_miss_latency::.cpu.data 103433.899448                       # average overall miss latency
system.l2.overall_avg_miss_latency::.cpu.dcache.prefetcher 127057.351274                       # average overall miss latency
system.l2.overall_avg_miss_latency::total 108343.604308                       # average overall miss latency
system.l2.overall_avg_mshr_miss_latency::.cpu.inst 85079.567155                       # average overall mshr miss latency
system.l2.overall_avg_mshr_miss_latency::.cpu.data 93433.899448                       # average overall mshr miss latency
system.l2.overall_avg_mshr_miss_latency::.cpu.dcache.prefetcher 117057.351274                       # average overall mshr miss latency
system.l2.overall_avg_mshr_miss_latency::total 98343.604308                       # average overall mshr miss latency
system.l2.overall_hits::.cpu.inst                 213                       # number of overall hits
system.l2.overall_hits::.cpu.data              919736                       # number of overall hits
system.l2.overall_hits::.cpu.dcache.prefetcher      1441058                       # number of overall hits
system.l2.overall_hits::total                 2361007                       # number of overall hits
system.l2.overall_miss_latency::.cpu.inst    149370000                       # number of overall miss cycles
system.l2.overall_miss_latency::.cpu.data   2454383000                       # number of overall miss cycles
system.l2.overall_miss_latency::.cpu.dcache.prefetcher    932473901                       # number of overall miss cycles
system.l2.overall_miss_latency::total      3536226901                       # number of overall miss cycles
system.l2.overall_miss_rate::.cpu.inst       0.880605                       # miss rate for overall accesses
system.l2.overall_miss_rate::.cpu.data       0.025151                       # miss rate for overall accesses
system.l2.overall_miss_rate::.cpu.dcache.prefetcher     0.005067                       # miss rate for overall accesses
system.l2.overall_miss_rate::total           0.013636                       # miss rate for overall accesses
system.l2.overall_misses::.cpu.inst              1571                       # number of overall misses
system.l2.overall_misses::.cpu.data             23729                       # number of overall misses
system.l2.overall_misses::.cpu.dcache.prefetcher         7339                       # number of overall misses
system.l2.overall_misses::total                 32639                       # number of overall misses
system.l2.overall_mshr_miss_latency::.cpu.inst    133660000                       # number of overall MSHR miss cycles
system.l2.overall_mshr_miss_latency::.cpu.data   2217093000                       # number of overall MSHR miss cycles
system.l2.overall_mshr_miss_latency::.cpu.dcache.prefetcher    859083901                       # number of overall MSHR miss cycles
system.l2.overall_mshr_miss_latency::total   3209836901                       # number of overall MSHR miss cycles
system.l2.overall_mshr_miss_rate::.cpu.inst     0.880605                       # mshr miss rate for overall accesses
system.l2.overall_mshr_miss_rate::.cpu.data     0.025151                       # mshr miss rate for overall accesses
system.l2.overall_mshr_miss_rate::.cpu.dcache.prefetcher     0.005067                       # mshr miss rate for overall accesses
system.l2.overall_mshr_miss_rate::total      0.013636                       # mshr miss rate for overall accesses
system.l2.overall_mshr_misses::.cpu.inst         1571                       # number of overall MSHR misses
system.l2.overall_mshr_misses::.cpu.data        23729                       # number of overall MSHR misses
system.l2.overall_mshr_misses::.cpu.dcache.prefetcher         7339                       # number of overall MSHR misses
system.l2.overall_mshr_misses::total            32639                       # number of overall MSHR misses
system.l2.pwrStateResidencyTicks::UNDEFINED 151937635500                       # Cumulative time (in ticks) in various power states
system.l2.replacements                           1670                       # number of replacements
system.l2.tags.age_task_id_blocks_1022::0           19                       # Occupied blocks per task id
system.l2.tags.age_task_id_blocks_1022::1           48                       # Occupied blocks per task id
system.l2.tags.age_task_id_blocks_1022::3          292                       # Occupied blocks per task id
system.l2.tags.age_task_id_blocks_1022::4         6537                       # Occupied blocks per task id
system.l2.tags.age_task_id_blocks_1024::0           74                       # Occupied blocks per task id
system.l2.tags.age_task_id_blocks_1024::1           84                       # Occupied blocks per task id
system.l2.tags.age_task_id_blocks_1024::3          376                       # Occupied blocks per task id
system.l2.tags.age_task_id_blocks_1024::4        23747                       # Occupied blocks per task id
system.l2.tags.avg_refs                    145.698024                       # Average number of references to valid blocks.
system.l2.tags.data_accesses                 38318791                       # Number of data accesses
system.l2.tags.occ_blocks::.writebacks      39.110088                       # Average occupied blocks per requestor
system.l2.tags.occ_blocks::.cpu.inst       743.984385                       # Average occupied blocks per requestor
system.l2.tags.occ_blocks::.cpu.data     20080.327410                       # Average occupied blocks per requestor
system.l2.tags.occ_blocks::.cpu.dcache.prefetcher  6055.171284                       # Average occupied blocks per requestor
system.l2.tags.occ_percent::.writebacks      0.001194                       # Average percentage of cache occupancy
system.l2.tags.occ_percent::.cpu.inst        0.022705                       # Average percentage of cache occupancy
system.l2.tags.occ_percent::.cpu.data        0.612803                       # Average percentage of cache occupancy
system.l2.tags.occ_percent::.cpu.dcache.prefetcher     0.184789                       # Average percentage of cache occupancy
system.l2.tags.occ_percent::total            0.821490                       # Average percentage of cache occupancy
system.l2.tags.occ_task_id_blocks::1022          6896                       # Occupied blocks per task id
system.l2.tags.occ_task_id_blocks::1024         24281                       # Occupied blocks per task id
system.l2.tags.occ_task_id_percent::1022     0.210449                       # Percentage of cache occupancy per task id
system.l2.tags.occ_task_id_percent::1024     0.740997                       # Percentage of cache occupancy per task id
system.l2.tags.pwrStateResidencyTicks::UNDEFINED 151937635500                       # Cumulative time (in ticks) in various power states
system.l2.tags.sampled_refs                     32847                       # Sample count of references to valid blocks.
system.l2.tags.tag_accesses                  38318791                       # Number of tag accesses
system.l2.tags.tagsinuse                 26918.593167                       # Cycle average of tags in use
system.l2.tags.total_refs                     4785743                       # Total number of references to valid blocks.
system.l2.tags.warmup_cycle                     77000                       # Cycle when the warmup percentage was hit.
system.l2.writebacks::.writebacks                 612                       # number of writebacks
system.l2.writebacks::total                       612                       # number of writebacks
system.mem_ctrls.avgBusLat                    5000.00                       # Average bus latency per DRAM burst
system.mem_ctrls.avgGap                    4569413.12                       # Average gap between requests
system.mem_ctrls.avgMemAccLat                57177.20                       # Average memory access latency per DRAM burst
system.mem_ctrls.avgPriority_.writebacks::samples       612.00                       # Average QoS priority value for accepted requests
system.mem_ctrls.avgPriority_.cpu.inst::samples      1571.00                       # Average QoS priority value for accepted requests
system.mem_ctrls.avgPriority_.cpu.data::samples     23705.00                       # Average QoS priority value for accepted requests
system.mem_ctrls.avgPriority_.cpu.dcache.prefetcher::samples      7320.00                       # Average QoS priority value for accepted requests
system.mem_ctrls.avgQLat                     38427.20                       # Average queueing delay per DRAM burst
system.mem_ctrls.avgRdBW                        13.73                       # Average DRAM read bandwidth in MiByte/s
system.mem_ctrls.avgRdBWSys                     13.75                       # Average system read bandwidth in MiByte/s
system.mem_ctrls.avgRdQLen                       1.01                       # Average read queue length when enqueuing
system.mem_ctrls.avgWrBW                         0.25                       # Average achieved write bandwidth in MiByte/s
system.mem_ctrls.avgWrBWSys                      0.26                       # Average system write bandwidth in MiByte/s
system.mem_ctrls.avgWrQLen                      21.09                       # Average write queue length when enqueuing
system.mem_ctrls.busUtil                         0.11                       # Data bus utilization in percentage
system.mem_ctrls.busUtilRead                     0.11                       # Data bus utilization in percentage for reads
system.mem_ctrls.busUtilWrite                    0.00                       # Data bus utilization in percentage for writes
system.mem_ctrls.bw_inst_read::.cpu.inst       661745                       # Instruction read bandwidth from this memory (bytes/s)
system.mem_ctrls.bw_inst_read::total           661745                       # Instruction read bandwidth from this memory (bytes/s)
system.mem_ctrls.bw_read::.cpu.inst            661745                       # Total read bandwidth from this memory (bytes/s)
system.mem_ctrls.bw_read::.cpu.data           9995259                       # Total read bandwidth from this memory (bytes/s)
system.mem_ctrls.bw_read::.cpu.dcache.prefetcher      3091374                       # Total read bandwidth from this memory (bytes/s)
system.mem_ctrls.bw_read::total              13748378                       # Total read bandwidth from this memory (bytes/s)
system.mem_ctrls.bw_total::.writebacks         257790                       # Total bandwidth to/from this memory (bytes/s)
system.mem_ctrls.bw_total::.cpu.inst           661745                       # Total bandwidth to/from this memory (bytes/s)
system.mem_ctrls.bw_total::.cpu.data          9995259                       # Total bandwidth to/from this memory (bytes/s)
system.mem_ctrls.bw_total::.cpu.dcache.prefetcher      3091374                       # Total bandwidth to/from this memory (bytes/s)
system.mem_ctrls.bw_total::total             14006168                       # Total bandwidth to/from this memory (bytes/s)
system.mem_ctrls.bw_write::.writebacks         257790                       # Write bandwidth from this memory (bytes/s)
system.mem_ctrls.bw_write::total               257790                       # Write bandwidth from this memory (bytes/s)
system.mem_ctrls.bytesPerActivate::samples        13519                       # Bytes accessed per row activation
system.mem_ctrls.bytesPerActivate::mean    156.977291                       # Bytes accessed per row activation
system.mem_ctrls.bytesPerActivate::gmean   101.314018                       # Bytes accessed per row activation
system.mem_ctrls.bytesPerActivate::stdev   211.946558                       # Bytes accessed per row activation
system.mem_ctrls.bytesPerActivate::0-127         9299     68.78%     68.78% # Bytes accessed per row activation
system.mem_ctrls.bytesPerActivate::128-255         2636     19.50%     88.28% # Bytes accessed per row activation
system.mem_ctrls.bytesPerActivate::256-383          298      2.20%     90.49% # Bytes accessed per row activation
system.mem_ctrls.bytesPerActivate::384-511          175      1.29%     91.78% # Bytes accessed per row activation
system.mem_ctrls.bytesPerActivate::512-639          105      0.78%     92.56% # Bytes accessed per row activation
system.mem_ctrls.bytesPerActivate::640-767           84      0.62%     93.18% # Bytes accessed per row activation
system.mem_ctrls.bytesPerActivate::768-895          584      4.32%     97.50% # Bytes accessed per row activation
system.mem_ctrls.bytesPerActivate::896-1023           30      0.22%     97.72% # Bytes accessed per row activation
system.mem_ctrls.bytesPerActivate::1024-1151          308      2.28%    100.00% # Bytes accessed per row activation
system.mem_ctrls.bytesPerActivate::total        13519                       # Bytes accessed per row activation
system.mem_ctrls.bytesReadDRAM                2086144                       # Total number of bytes read from DRAM
system.mem_ctrls.bytesReadSys                 2088896                       # Total read bytes from the system interface side
system.mem_ctrls.bytesReadWrQ                    2752                       # Total number of bytes read from write queue
system.mem_ctrls.bytesWritten                   38016                       # Total number of bytes written to DRAM
system.mem_ctrls.bytesWrittenSys                39168                       # Total written bytes from the system interface side
system.mem_ctrls.bytes_inst_read::.cpu.inst       100544                       # Number of instructions bytes read from this memory
system.mem_ctrls.bytes_inst_read::total        100544                       # Number of instructions bytes read from this memory
system.mem_ctrls.bytes_read::.cpu.inst         100544                       # Number of bytes read from this memory
system.mem_ctrls.bytes_read::.cpu.data        1518656                       # Number of bytes read from this memory
system.mem_ctrls.bytes_read::.cpu.dcache.prefetcher       469696                       # Number of bytes read from this memory
system.mem_ctrls.bytes_read::total            2088896                       # Number of bytes read from this memory
system.mem_ctrls.bytes_written::.writebacks        39168                       # Number of bytes written to this memory
system.mem_ctrls.bytes_written::total           39168                       # Number of bytes written to this memory
system.mem_ctrls.masterReadAccesses::.cpu.inst         1571                       # Per-master read serviced memory accesses
system.mem_ctrls.masterReadAccesses::.cpu.data        23729                       # Per-master read serviced memory accesses
system.mem_ctrls.masterReadAccesses::.cpu.dcache.prefetcher         7339                       # Per-master read serviced memory accesses
system.mem_ctrls.masterReadAvgLat::.cpu.inst     44249.67                       # Per-master read average memory access latency
system.mem_ctrls.masterReadAvgLat::.cpu.data     52295.73                       # Per-master read average memory access latency
system.mem_ctrls.masterReadAvgLat::.cpu.dcache.prefetcher     75392.59                       # Per-master read average memory access latency
system.mem_ctrls.masterReadBytes::.cpu.inst       100544                       # Per-master bytes read from memory
system.mem_ctrls.masterReadBytes::.cpu.data      1517120                       # Per-master bytes read from memory
system.mem_ctrls.masterReadBytes::.cpu.dcache.prefetcher       468480                       # Per-master bytes read from memory
system.mem_ctrls.masterReadRate::.cpu.inst 661745.193474463420                       # Per-master bytes read from memory rate (Bytes/sec)
system.mem_ctrls.masterReadRate::.cpu.data 9985149.466143956408                       # Per-master bytes read from memory rate (Bytes/sec)
system.mem_ctrls.masterReadRate::.cpu.dcache.prefetcher 3083370.347697690595                       # Per-master bytes read from memory rate (Bytes/sec)
system.mem_ctrls.masterReadTotalLat::.cpu.inst     69516228                       # Per-master read total memory access latency
system.mem_ctrls.masterReadTotalLat::.cpu.data   1240925457                       # Per-master read total memory access latency
system.mem_ctrls.masterReadTotalLat::.cpu.dcache.prefetcher    553306215                       # Per-master read total memory access latency
system.mem_ctrls.masterWriteAccesses::.writebacks          612                       # Per-master write serviced memory accesses
system.mem_ctrls.masterWriteAvgLat::.writebacks 5230493838.17                       # Per-master write average memory access latency
system.mem_ctrls.masterWriteBytes::.writebacks        38016                       # Per-master bytes write to memory
system.mem_ctrls.masterWriteRate::.writebacks 250207.921657435567                       # Per-master bytes write to memory rate (Bytes/sec)
system.mem_ctrls.masterWriteTotalLat::.writebacks 3201062228961                       # Per-master write total memory access latency
system.mem_ctrls.mergedWrBursts                     0                       # Number of DRAM write bursts merged with an existing one
system.mem_ctrls.neitherReadNorWriteReqs            0                       # Number of requests that are neither read nor write
system.mem_ctrls.numRdRetry                         0                       # Number of times read queue was full causing retry
system.mem_ctrls.numReadWriteTurnArounds           35                       # Number of turnarounds from READ to WRITE
system.mem_ctrls.numStayReadState               69907                       # Number of times bus staying in READ state
system.mem_ctrls.numStayWriteState                574                       # Number of times bus staying in WRITE state
system.mem_ctrls.numWrRetry                         0                       # Number of times write queue was full causing retry
system.mem_ctrls.numWriteReadTurnArounds           35                       # Number of turnarounds from WRITE to READ
system.mem_ctrls.num_reads::.cpu.inst            1571                       # Number of read requests responded to by this memory
system.mem_ctrls.num_reads::.cpu.data           23729                       # Number of read requests responded to by this memory
system.mem_ctrls.num_reads::.cpu.dcache.prefetcher         7339                       # Number of read requests responded to by this memory
system.mem_ctrls.num_reads::total               32639                       # Number of read requests responded to by this memory
system.mem_ctrls.num_writes::.writebacks          612                       # Number of write requests responded to by this memory
system.mem_ctrls.num_writes::total                612                       # Number of write requests responded to by this memory
system.mem_ctrls.pageHitRate                    59.21                       # Row buffer hit rate, read and write combined
system.mem_ctrls.peakBW                      12800.00                       # Theoretical peak bandwidth in MiByte/s
system.mem_ctrls.perBankRdBursts::0              2216                       # Per bank write bursts
system.mem_ctrls.perBankRdBursts::1              2038                       # Per bank write bursts
system.mem_ctrls.perBankRdBursts::2              1992                       # Per bank write bursts
system.mem_ctrls.perBankRdBursts::3              1998                       # Per bank write bursts
system.mem_ctrls.perBankRdBursts::4              2058                       # Per bank write bursts
system.mem_ctrls.perBankRdBursts::5              2073                       # Per bank write bursts
system.mem_ctrls.perBankRdBursts::6              1966                       # Per bank write bursts
system.mem_ctrls.perBankRdBursts::7              1915                       # Per bank write bursts
system.mem_ctrls.perBankRdBursts::8              1800                       # Per bank write bursts
system.mem_ctrls.perBankRdBursts::9              1875                       # Per bank write bursts
system.mem_ctrls.perBankRdBursts::10             2154                       # Per bank write bursts
[...]
system.mem_ctrls.wrQLenPdf::26                     35                       # What write queue length does an incoming req see
system.mem_ctrls.wrQLenPdf::27                     35                       # What write queue length does an incoming req see
system.mem_ctrls.wrQLenPdf::28                     35                       # What write queue length does an incoming req see
system.mem_ctrls.wrQLenPdf::29                     35                       # What write queue length does an incoming req see
system.mem_ctrls.wrQLenPdf::30                     37                       # What write queue length does an incoming req see
system.mem_ctrls.wrQLenPdf::31                     35                       # What write queue length does an incoming req see
system.mem_ctrls.wrQLenPdf::32                     35                       # What write queue length does an incoming req see
system.mem_ctrls.wrQLenPdf::33                      0                       # What write queue length does an incoming req see
system.mem_ctrls.wrQLenPdf::34                      0                       # What write queue length does an incoming req see
system.mem_ctrls.wrQLenPdf::35                      0                       # What write queue length does an incoming req see
system.mem_ctrls.wrQLenPdf::36                      0                       # What write queue length does an incoming req see
system.mem_ctrls.wrQLenPdf::37                      0                       # What write queue length does an incoming req see
system.mem_ctrls.wrQLenPdf::38                      0                       # What write queue length does an incoming req see
system.mem_ctrls.wrQLenPdf::39                      0                       # What write queue length does an incoming req see
system.mem_ctrls.wrQLenPdf::40                      0                       # What write queue length does an incoming req see
system.mem_ctrls.wrQLenPdf::41                      0                       # What write queue length does an incoming req see
system.mem_ctrls.wrQLenPdf::42                      0                       # What write queue length does an incoming req see
system.mem_ctrls.wrQLenPdf::43                      0                       # What write queue length does an incoming req see
system.mem_ctrls.wrQLenPdf::44                      0                       # What write queue length does an incoming req see
system.mem_ctrls.wrQLenPdf::45                      0                       # What write queue length does an incoming req see
system.mem_ctrls.wrQLenPdf::46                      0                       # What write queue length does an incoming req see
system.mem_ctrls.wrQLenPdf::47                      0                       # What write queue length does an incoming req see
system.mem_ctrls.wrQLenPdf::48                      0                       # What write queue length does an incoming req see
system.mem_ctrls.wrQLenPdf::49                      0                       # What write queue length does an incoming req see
system.mem_ctrls.wrQLenPdf::50                      0                       # What write queue length does an incoming req see
system.mem_ctrls.wrQLenPdf::51                      0                       # What write queue length does an incoming req see
system.mem_ctrls.wrQLenPdf::52                      0                       # What write queue length does an incoming req see
system.mem_ctrls.wrQLenPdf::53                      0                       # What write queue length does an incoming req see
system.mem_ctrls.wrQLenPdf::54                      0                       # What write queue length does an incoming req see
system.mem_ctrls.wrQLenPdf::55                      0                       # What write queue length does an incoming req see
system.mem_ctrls.wrQLenPdf::56                      0                       # What write queue length does an incoming req see
system.mem_ctrls.wrQLenPdf::57                      0                       # What write queue length does an incoming req see
system.mem_ctrls.wrQLenPdf::58                      0                       # What write queue length does an incoming req see
system.mem_ctrls.wrQLenPdf::59                      0                       # What write queue length does an incoming req see
system.mem_ctrls.wrQLenPdf::60                      0                       # What write queue length does an incoming req see
system.mem_ctrls.wrQLenPdf::61                      0                       # What write queue length does an incoming req see
system.mem_ctrls.wrQLenPdf::62                      0                       # What write queue length does an incoming req see
system.mem_ctrls.wrQLenPdf::63                      0                       # What write queue length does an incoming req see
system.mem_ctrls.writeBursts                      612                       # Number of DRAM write bursts, including those merged in the write queue
system.mem_ctrls.writePktSize::0                    0                       # Write request sizes (log2)
system.mem_ctrls.writePktSize::1                    0                       # Write request sizes (log2)
system.mem_ctrls.writePktSize::2                    0                       # Write request sizes (log2)
system.mem_ctrls.writePktSize::3                    0                       # Write request sizes (log2)
system.mem_ctrls.writePktSize::4                    0                       # Write request sizes (log2)
system.mem_ctrls.writePktSize::5                    0                       # Write request sizes (log2)
system.mem_ctrls.writePktSize::6                  612                       # Write request sizes (log2)
system.mem_ctrls.writeReqs                        612                       # Number of write requests accepted
system.mem_ctrls.writeRowHitRate                70.92                       # Row buffer hit rate for writes
system.mem_ctrls.writeRowHits                     434                       # Number of row buffer hits during writes
system.mem_ctrls_0.actBackEnergy            481092540                       # Energy for active background per rank (pJ)
system.mem_ctrls_0.actEnergy                 47195400                       # Energy for activate commands per rank (pJ)
system.mem_ctrls_0.actPowerDownEnergy      4904817510                       # Energy for active power-down per rank (pJ)
system.mem_ctrls_0.averagePower            273.717234                       # Core power per rank (mW)
system.mem_ctrls_0.memoryStateTime::IDLE    107788500                       # Time in different power states
system.mem_ctrls_0.memoryStateTime::REF     580580000                       # Time in different power states
system.mem_ctrls_0.memoryStateTime::SREF 134447365500                       # Time in different power states
system.mem_ctrls_0.memoryStateTime::PRE_PDN   5511561985                       # Time in different power states
system.mem_ctrls_0.memoryStateTime::ACT     533848972                       # Time in different power states
system.mem_ctrls_0.memoryStateTime::ACT_PDN  10756490543                       # Time in different power states
system.mem_ctrls_0.preBackEnergy             64349760                       # Energy for precharge background per rank (pJ)
system.mem_ctrls_0.preEnergy                 25062180                       # Energy for precharge commands per rank (pJ)
system.mem_ctrls_0.prePowerDownEnergy      2116400640                       # Energy for precharge power-down per rank (pJ)
system.mem_ctrls_0.readEnergy               116067840                       # Energy for read commands per rank (pJ)
system.mem_ctrls_0.refreshEnergy         1372491120.000000                       # Energy for refresh commands per rank (pJ)
system.mem_ctrls_0.selfRefreshEnergy      32459553720                       # Energy for self refresh per rank (pJ)
system.mem_ctrls_0.totalEnergy            41587949310                       # Total energy per rank (pJ)
system.mem_ctrls_0.totalIdleTime         150715374278                       # Total Idle time Per DRAM Rank
system.mem_ctrls_0.writeEnergy                 903060                       # Energy for write commands per rank (pJ)
system.mem_ctrls_1.actBackEnergy            499279530                       # Energy for active background per rank (pJ)
system.mem_ctrls_1.actEnergy                 49401660                       # Energy for activate commands per rank (pJ)
system.mem_ctrls_1.actPowerDownEnergy      4978706610                       # Energy for active power-down per rank (pJ)
system.mem_ctrls_1.averagePower            273.712578                       # Core power per rank (mW)
system.mem_ctrls_1.memoryStateTime::IDLE    102339250                       # Time in different power states
system.mem_ctrls_1.memoryStateTime::REF     579280000                       # Time in different power states
system.mem_ctrls_1.memoryStateTime::SREF 134492426750                       # Time in different power states
system.mem_ctrls_1.memoryStateTime::PRE_PDN   5269860717                       # Time in different power states
system.mem_ctrls_1.memoryStateTime::ACT     575453981                       # Time in different power states
system.mem_ctrls_1.memoryStateTime::ACT_PDN  10918274802                       # Time in different power states
system.mem_ctrls_1.preBackEnergy             62182560                       # Energy for precharge background per rank (pJ)
system.mem_ctrls_1.preEnergy                 26242425                       # Energy for precharge commands per rank (pJ)
system.mem_ctrls_1.prePowerDownEnergy      2023619520                       # Energy for precharge power-down per rank (pJ)
system.mem_ctrls_1.readEnergy               116667600                       # Energy for read commands per rank (pJ)
system.mem_ctrls_1.refreshEnergy         1369417920.000000                       # Energy for refresh commands per rank (pJ)
system.mem_ctrls_1.selfRefreshEnergy      32459390520                       # Energy for self refresh per rank (pJ)
system.mem_ctrls_1.totalEnergy            41587241925                       # Total energy per rank (pJ)
system.mem_ctrls_1.totalIdleTime         150680333019                       # Total Idle time Per DRAM Rank
system.mem_ctrls_1.writeEnergy                2197620                       # Energy for write commands per rank (pJ)
system.membus.pkt_count_system.l2.mem_side::system.mem_ctrls.port        66704                       # Packet count per connected master and slave (bytes)
system.membus.pkt_count_system.l2.mem_side::total        66704                       # Packet count per connected master and slave (bytes)
system.membus.pkt_count::total                  66704                       # Packet count per connected master and slave (bytes)
system.membus.pkt_size_system.l2.mem_side::system.mem_ctrls.port      2128064                       # Cumulative packet size per connected master and slave (bytes)
system.membus.pkt_size_system.l2.mem_side::total      2128064                       # Cumulative packet size per connected master and slave (bytes)
system.membus.pkt_size::total                 2128064                       # Cumulative packet size per connected master and slave (bytes)
system.membus.pwrStateResidencyTicks::UNDEFINED 151937635500                       # Cumulative time (in ticks) in various power states
system.membus.reqLayer2.occupancy            40447886                       # Layer occupancy (ticks)
system.membus.reqLayer2.utilization               0.0                       # Layer utilization (%)
system.membus.respLayer1.occupancy          174633105                       # Layer occupancy (ticks)
system.membus.respLayer1.utilization              0.1                       # Layer utilization (%)
system.membus.snoopTraffic                          0                       # Total snoop traffic (bytes)
system.membus.snoop_fanout::samples             32639                       # Request fanout histogram
system.membus.snoop_fanout::mean                    0                       # Request fanout histogram
system.membus.snoop_fanout::stdev                   0                       # Request fanout histogram
system.membus.snoop_fanout::underflows              0      0.00%      0.00% # Request fanout histogram
system.membus.snoop_fanout::0                   32639    100.00%    100.00% # Request fanout histogram
system.membus.snoop_fanout::1                       0      0.00%    100.00% # Request fanout histogram
system.membus.snoop_fanout::overflows               0      0.00%    100.00% # Request fanout histogram
system.membus.snoop_fanout::min_value               0                       # Request fanout histogram
system.membus.snoop_fanout::max_value               0                       # Request fanout histogram
system.membus.snoop_fanout::total               32639                       # Request fanout histogram
system.membus.snoop_filter.hit_multi_requests            0                       # Number of requests hitting in the snoop filter with multiple (>1) holders of the requested data.
system.membus.snoop_filter.hit_multi_snoops            0                       # Number of snoops hitting in the snoop filter with multiple (>1) holders of the requested data.
system.membus.snoop_filter.hit_single_requests         1426                       # Number of requests hitting in the snoop filter with a single holder of the requested data.
system.membus.snoop_filter.hit_single_snoops            0                       # Number of snoops hitting in the snoop filter with a single holder of the requested data.
system.membus.snoop_filter.tot_requests         34065                       # Total number of requests made to the snoop filter.
system.membus.snoop_filter.tot_snoops               0                       # Total number of snoops made to the snoop filter.
system.membus.snoops                                0                       # Total snoops (count)
system.membus.trans_dist::ReadResp               9759                       # Transaction distribution
system.membus.trans_dist::WritebackDirty          612                       # Transaction distribution
system.membus.trans_dist::CleanEvict              814                       # Transaction distribution
system.membus.trans_dist::ReadExReq             22880                       # Transaction distribution
system.membus.trans_dist::ReadExResp            22880                       # Transaction distribution
system.membus.trans_dist::ReadSharedReq          9759                       # Transaction distribution
system.pwrStateResidencyTicks::UNDEFINED 151937635500                       # Cumulative time (in ticks) in various power states
system.tol2bus.pkt_count_system.cpu.icache.mem_side::system.l2.cpu_side         4840                       # Packet count per connected master and slave (bytes)
system.tol2bus.pkt_count_system.cpu.dcache.mem_side::system.l2.cpu_side      7174562                       # Packet count per connected master and slave (bytes)
system.tol2bus.pkt_count::total               7179402                       # Packet count per connected master and slave (bytes)
system.tol2bus.pkt_size_system.cpu.icache.mem_side::system.l2.cpu_side       195584                       # Cumulative packet size per connected master and slave (bytes)
system.tol2bus.pkt_size_system.cpu.dcache.mem_side::system.l2.cpu_side    304625408                       # Cumulative packet size per connected master and slave (bytes)
system.tol2bus.pkt_size::total              304820992                       # Cumulative packet size per connected master and slave (bytes)
system.tol2bus.pwrStateResidencyTicks::UNDEFINED 151937635500                       # Cumulative time (in ticks) in various power states
system.tol2bus.reqLayer0.occupancy         5122878582                       # Layer occupancy (ticks)
system.tol2bus.reqLayer0.utilization              3.4                       # Layer utilization (%)
system.tol2bus.respLayer0.occupancy           2676000                       # Layer occupancy (ticks)
system.tol2bus.respLayer0.utilization             0.0                       # Layer utilization (%)
system.tol2bus.respLayer1.occupancy        3587793000                       # Layer occupancy (ticks)
system.tol2bus.respLayer1.utilization             2.4                       # Layer utilization (%)
system.tol2bus.snoopTraffic                     39168                       # Total snoop traffic (bytes)
system.tol2bus.snoop_fanout::samples          2395316                       # Request fanout histogram
system.tol2bus.snoop_fanout::mean            0.000107                       # Request fanout histogram
system.tol2bus.snoop_fanout::stdev           0.010358                       # Request fanout histogram
system.tol2bus.snoop_fanout::underflows             0      0.00%      0.00% # Request fanout histogram
system.tol2bus.snoop_fanout::0                2395059     99.99%     99.99% # Request fanout histogram
system.tol2bus.snoop_fanout::1                    257      0.01%    100.00% # Request fanout histogram
system.tol2bus.snoop_fanout::2                      0      0.00%    100.00% # Request fanout histogram
system.tol2bus.snoop_fanout::3                      0      0.00%    100.00% # Request fanout histogram
system.tol2bus.snoop_fanout::4                      0      0.00%    100.00% # Request fanout histogram
system.tol2bus.snoop_fanout::overflows              0      0.00%    100.00% # Request fanout histogram
system.tol2bus.snoop_fanout::min_value              0                       # Request fanout histogram
system.tol2bus.snoop_fanout::max_value              1                       # Request fanout histogram
system.tol2bus.snoop_fanout::total            2395316                       # Request fanout histogram
system.tol2bus.snoop_filter.hit_multi_requests           13                       # Number of requests hitting in the snoop filter with multiple (>1) holders of the requested data.
system.tol2bus.snoop_filter.hit_multi_snoops            0                       # Number of snoops hitting in the snoop filter with multiple (>1) holders of the requested data.
system.tol2bus.snoop_filter.hit_single_requests      2392110                       # Number of requests hitting in the snoop filter with a single holder of the requested data.
system.tol2bus.snoop_filter.hit_single_snoops          244                       # Number of snoops hitting in the snoop filter with a single holder of the requested data.
system.tol2bus.snoop_filter.tot_requests      4785756                       # Total number of requests made to the snoop filter.
system.tol2bus.snoop_filter.tot_snoops            244                       # Total number of snoops made to the snoop filter.
system.tol2bus.snoops                            1670                       # Total snoops (count)
system.tol2bus.trans_dist::ReadResp           2120115                       # Transaction distribution
system.tol2bus.trans_dist::WritebackDirty      2368522                       # Transaction distribution
system.tol2bus.trans_dist::WritebackClean         1272                       # Transaction distribution
system.tol2bus.trans_dist::CleanEvict           23986                       # Transaction distribution
system.tol2bus.trans_dist::ReadExReq           273531                       # Transaction distribution
system.tol2bus.trans_dist::ReadExResp          273531                       # Transaction distribution
system.tol2bus.trans_dist::ReadCleanReq          1784                       # Transaction distribution
system.tol2bus.trans_dist::ReadSharedReq      2118331                       # Transaction distribution
system.voltage_domain.voltage                       1                       # Voltage in Volts

---------- End Simulation Statistics   ----------
